data_sg-v3545-6-13
_audit_creation_date              2022-01-18
_audit_creation_method
;
Olex2 1.2
(compiled 2017.08.10 svn.r3458 for OlexSys, GUI svn.r5381)
;
_shelx_SHELXL_version_number      '2018/3'
_publ_contact_author_address      ?
_publ_contact_author_email        ?
_publ_contact_author_id_orcid     ?
_publ_contact_author_name         ''
_publ_contact_author_phone        ?
_publ_section_references
;
Dolomanov, O.V., Bourhis, L.J., Gildea, R.J, Howard, J.A.K. & Puschmann, H.
 (2009), J. Appl. Cryst. 42, 339-341.

Sheldrick, G.M. (2015). Acta Cryst. A71, 3-8.

Sheldrick, G.M. (2015). Acta Cryst. C71, 3-8.
;
_chemical_name_common             ?
_chemical_name_systematic         ?
_chemical_formula_moiety          'C13 H9 Br N2'
_chemical_formula_sum             'C13 H9 Br N2'
_chemical_formula_weight          273.13
_chemical_melting_point           ?
loop_
  _atom_type_symbol
  _atom_type_description
  _atom_type_scat_dispersion_real
  _atom_type_scat_dispersion_imag
  _atom_type_scat_source
 'C' 'C' 0.0150 0.0070 'International Tables Vol C Tables 4.2.6.8 and 6.1.1.4'
 'H' 'H' 0.0000 0.0000 'International Tables Vol C Tables 4.2.6.8 and 6.1.1.4'
 'N' 'N' 0.0250 0.0140 'International Tables Vol C Tables 4.2.6.8 and 6.1.1.4'
 'Br' 'Br' -0.9500 1.0410
 'International Tables Vol C Tables 4.2.6.8 and 6.1.1.4'

_shelx_space_group_comment
;
The symmetry employed for this shelxl refinement is uniquely defined
by the following loop, which should always be used as a source of
symmetry information in preference to the above space-group names.
They are only intended as comments.
;
_space_group_crystal_system       'orthorhombic'
_space_group_IT_number            61
_space_group_name_H-M_alt         'P b c a'
_space_group_name_Hall            '-P 2ac 2ab'
loop_
  _space_group_symop_operation_xyz
 'x, y, z'
 '-x+1/2, -y, z+1/2'
 '-x, y+1/2, -z+1/2'
 'x+1/2, -y+1/2, -z'
 '-x, -y, -z'
 'x-1/2, y, -z-1/2'
 'x, -y-1/2, z-1/2'
 '-x-1/2, y-1/2, z'

_cell_length_a                    5.5348(3)
_cell_length_b                    15.6534(9)
_cell_length_c                    25.0106(16)
_cell_angle_alpha                 90
_cell_angle_beta                  90
_cell_angle_gamma                 90
_cell_volume                      2166.9(2)
_cell_formula_units_Z             8
_cell_measurement_reflns_used     13972
_cell_measurement_temperature     150(2)
_cell_measurement_theta_max       64.37
_cell_measurement_theta_min       3.07
_shelx_estimated_absorpt_T_max    0.935
_shelx_estimated_absorpt_T_min    0.649
_exptl_absorpt_coefficient_mu     3.385
_exptl_absorpt_correction_T_max   0.8885
_exptl_absorpt_correction_T_min   0.3612
_exptl_absorpt_correction_type    multi-scan
_exptl_absorpt_process_details
;
STOE LANA, absorption correction by scaling of reflection intensities.
J. Koziskova, F. Hahn, J. Richter, J. Kozisek, "Comparison of different
absorption corrections on the model structure of tetrakis(\m~2~-acetato)-
diaqua-di-copper(II)", Acta Chimica Slovaca, vol. 9, no. 2, 2016, pp. 136 - 140.
;
_exptl_absorpt_special_details    ?
_exptl_crystal_colour             colourless
_exptl_crystal_colour_primary     colourless
_exptl_crystal_density_diffrn     1.674
_exptl_crystal_density_meas       ?
_exptl_crystal_density_method     ?
_exptl_crystal_description        plate
_exptl_crystal_F_000              1088
_exptl_crystal_size_max           0.14
_exptl_crystal_size_mid           0.12
_exptl_crystal_size_min           0.02
_exptl_transmission_factor_max    ?
_exptl_transmission_factor_min    ?
_diffrn_reflns_av_R_equivalents   0.0294
_diffrn_reflns_av_unetI/netI      0.0220
_diffrn_reflns_Laue_measured_fraction_full 0.985
_diffrn_reflns_Laue_measured_fraction_max 0.986
_diffrn_reflns_limit_h_max        7
_diffrn_reflns_limit_h_min        -7
_diffrn_reflns_limit_k_max        8
_diffrn_reflns_limit_k_min        -20
_diffrn_reflns_limit_l_max        32
_diffrn_reflns_limit_l_min        -32
_diffrn_reflns_number             11194
_diffrn_reflns_point_group_measured_fraction_full 0.985
_diffrn_reflns_point_group_measured_fraction_max 0.986
_diffrn_reflns_theta_full         53.597
_diffrn_reflns_theta_max          62.529
_diffrn_reflns_theta_min          3.075
_diffrn_ambient_temperature       150.0
_diffrn_detector                  'Eiger R 4M'
_diffrn_detector_area_resol_mean  13.33
_diffrn_detector_type             DECTRIS
_diffrn_measured_fraction_theta_full 0.985
_diffrn_measured_fraction_theta_max 0.986
_diffrn_measurement_device        'Eulerian 4-circle diffractometer'
_diffrn_measurement_device_type   'Stoe StadiVari'
_diffrn_measurement_method        'rotation method, \w scans'
_diffrn_radiation_collimation     '1.2 0.6 mm diameter'
_diffrn_radiation_monochromator   'Graded multilayer mirror'
_diffrn_radiation_polarisn_norm   0
_diffrn_radiation_probe           x-ray
_diffrn_radiation_type            GaK\a
_diffrn_radiation_wavelength      1.34143
_diffrn_source                    'Metaljet D2'
_diffrn_source_current            3.570
_diffrn_source_power              0.250
_diffrn_source_target             Ga
_diffrn_source_type               'Metaljet D2'
_diffrn_source_voltage            70
_reflns_Friedel_coverage          0.000
_reflns_Friedel_fraction_full     .
_reflns_Friedel_fraction_max      .
_reflns_number_gt                 2097
_reflns_number_total              2593
_reflns_special_details
;
 Reflections were merged by SHELXL according to the crystal
 class for the calculation of statistics and refinement.
 
 _reflns_Friedel_fraction is defined as the number of unique
 Friedel pairs measured divided by the number that would be
 possible theoretically, ignoring centric projections and
 systematic absences.
;
_reflns_threshold_expression      'I > 2\s(I)'
_computing_cell_refinement        ?
_computing_data_collection        ?
_computing_data_reduction         ?
_computing_molecular_graphics     'Olex2 (Dolomanov et al., 2009)'
_computing_publication_material   'Olex2 (Dolomanov et al., 2009)'
_computing_structure_refinement   'ShelXL (Sheldrick, 2015)'
_computing_structure_solution     'ShelXT (Sheldrick, 2015)'
_refine_diff_density_max          0.970
_refine_diff_density_min          -0.591
_refine_diff_density_rms          0.084
_refine_ls_extinction_coef        .
_refine_ls_extinction_method      none
_refine_ls_goodness_of_fit_ref    1.031
_refine_ls_hydrogen_treatment     constr
_refine_ls_matrix_type            full
_refine_ls_number_parameters      145
_refine_ls_number_reflns          2593
_refine_ls_number_restraints      0
_refine_ls_R_factor_all           0.0470
_refine_ls_R_factor_gt            0.0390
_refine_ls_restrained_S_all       1.031
_refine_ls_shift/su_max           0.001
_refine_ls_shift/su_mean          0.000
_refine_ls_structure_factor_coef  Fsqd
_refine_ls_weighting_details
'w=1/[\s^2^(Fo^2^)+(0.0746P)^2^+0.6669P] where P=(Fo^2^+2Fc^2^)/3'
_refine_ls_weighting_scheme       calc
_refine_ls_wR_factor_gt           0.1074
_refine_ls_wR_factor_ref          0.1126
_refine_special_details           ?
_olex2_refinement_description
;
1. Fixed Uiso
 At 1.2 times of:
  All C(H) groups
2.a Aromatic/amide H refined with riding coordinates:
 C2(H2), C3(H3), C5(H5), C6(H6), C9(H9), C10(H10), C11(H11), C12(H12), C13(H13)
;
_atom_sites_solution_hydrogens    geom
_atom_sites_solution_primary      dual
_atom_sites_solution_secondary    ?
loop_
  _atom_site_label
  _atom_site_type_symbol
  _atom_site_fract_x
  _atom_site_fract_y
  _atom_site_fract_z
  _atom_site_U_iso_or_equiv
  _atom_site_adp_type
  _atom_site_occupancy
  _atom_site_site_symmetry_order
  _atom_site_calc_flag
  _atom_site_refinement_flags_posn
  _atom_site_refinement_flags_adp
  _atom_site_refinement_flags_occupancy
  _atom_site_disorder_assembly
  _atom_site_disorder_group
 Br1 Br 0.66068(5) 0.53277(2) 0.70208(2) 0.04306(14) Uani 1 1 d . . . . .
 N1 N 0.5465(3) 0.61051(11) 0.54841(8) 0.0298(4) Uani 1 1 d . . . . .
 N2 N 0.2698(3) 0.59512(12) 0.48366(8) 0.0322(4) Uani 1 1 d . . . . .
 C1 C 0.3280(3) 0.57300(14) 0.53321(10) 0.0298(4) Uani 1 1 d . . . . .
 C2 C 0.2092(4) 0.51926(15) 0.57057(11) 0.0354(5) Uani 1 1 d . . . . .
 H2 H 0.062668 0.491609 0.561015 0.042 Uiso 1 1 calc R . . . .
 C3 C 0.3044(4) 0.50743(16) 0.61961(11) 0.0353(5) Uani 1 1 d . . . . .
 H3 H 0.223950 0.472285 0.644942 0.042 Uiso 1 1 calc R . . . .
 C4 C 0.5259(4) 0.54789(14) 0.63317(10) 0.0335(5) Uani 1 1 d . . . . .
 C5 C 0.6454(4) 0.59872(15) 0.59846(9) 0.0321(5) Uani 1 1 d . . . . .
 H5 H 0.792903 0.625512 0.608235 0.039 Uiso 1 1 calc R . . . .
 C6 C 0.6249(4) 0.65768(14) 0.50578(10) 0.0316(5) Uani 1 1 d . . . . .
 H6 H 0.768625 0.690695 0.503691 0.038 Uiso 1 1 calc R . . . .
 C7 C 0.4531(4) 0.64756(13) 0.46655(9) 0.0304(4) Uani 1 1 d . . . . .
 C8 C 0.4528(4) 0.68436(14) 0.41260(9) 0.0318(5) Uani 1 1 d . . . . .
 C9 C 0.6428(4) 0.73551(16) 0.39445(10) 0.0360(5) Uani 1 1 d . . . . .
 H9 H 0.774126 0.747988 0.417627 0.043 Uiso 1 1 calc R . . . .
 C10 C 0.6415(4) 0.76811(17) 0.34312(11) 0.0402(5) Uani 1 1 d . . . . .
 H10 H 0.772249 0.802619 0.331346 0.048 Uiso 1 1 calc R . . . .
 C11 C 0.4505(5) 0.75099(17) 0.30842(10) 0.0402(5) Uani 1 1 d . . . . .
 H11 H 0.449776 0.773717 0.273196 0.048 Uiso 1 1 calc R . . . .
 C12 C 0.2613(5) 0.70010(17) 0.32623(11) 0.0425(6) Uani 1 1 d . . . . .
 H12 H 0.130619 0.687505 0.302909 0.051 Uiso 1 1 calc R . . . .
 C13 C 0.2618(4) 0.66765(15) 0.37760(10) 0.0372(5) Uani 1 1 d . . . . .
 H13 H 0.130188 0.633459 0.389307 0.045 Uiso 1 1 calc R . . . .

loop_
  _atom_site_aniso_label
  _atom_site_aniso_U_11
  _atom_site_aniso_U_22
  _atom_site_aniso_U_33
  _atom_site_aniso_U_23
  _atom_site_aniso_U_13
  _atom_site_aniso_U_12
 Br1 0.0452(2) 0.0459(2) 0.0381(2) -0.00320(10) -0.00251(10) -0.00191(11)
 N1 0.0201(8) 0.0277(8) 0.0415(10) -0.0068(7) -0.0012(7) 0.0002(6)
 N2 0.0226(8) 0.0287(9) 0.0454(11) -0.0038(8) -0.0022(8) -0.0019(7)
 C1 0.0171(8) 0.0278(10) 0.0446(12) -0.0062(9) 0.0001(8) 0.0005(7)
 C2 0.0224(9) 0.0310(11) 0.0527(15) -0.0052(10) 0.0030(9) -0.0029(8)
 C3 0.0293(10) 0.0310(11) 0.0457(14) -0.0045(10) 0.0045(9) -0.0009(8)
 C4 0.0288(10) 0.0324(11) 0.0394(12) -0.0074(9) -0.0010(9) 0.0025(8)
 C5 0.0255(9) 0.0321(11) 0.0388(12) -0.0077(9) -0.0021(8) -0.0011(8)
 C6 0.0226(9) 0.0310(11) 0.0412(12) -0.0049(9) 0.0001(8) -0.0007(8)
 C7 0.0205(9) 0.0261(10) 0.0448(12) -0.0061(9) -0.0003(8) 0.0008(7)
 C8 0.0236(9) 0.0286(10) 0.0432(12) -0.0073(9) -0.0010(8) 0.0027(8)
 C9 0.0263(10) 0.0359(11) 0.0457(13) -0.0085(10) 0.0014(9) -0.0018(8)
 C10 0.0342(12) 0.0377(13) 0.0488(14) -0.0042(11) 0.0077(10) -0.0016(9)
 C11 0.0426(13) 0.0362(12) 0.0420(13) -0.0022(10) 0.0022(10) 0.0071(10)
 C12 0.0392(13) 0.0392(13) 0.0492(15) -0.0018(11) -0.0093(11) 0.0016(10)
 C13 0.0277(10) 0.0346(12) 0.0493(14) -0.0004(10) -0.0065(10) -0.0032(9)

_geom_special_details
;
 All esds (except the esd in the dihedral angle between two l.s. planes)
 are estimated using the full covariance matrix.  The cell esds are taken
 into account individually in the estimation of esds in distances, angles
 and torsion angles; correlations between esds in cell parameters are only
 used when they are defined by crystal symmetry.  An approximate (isotropic)
 treatment of cell esds is used for estimating esds involving l.s. planes.
;
loop_
  _geom_bond_atom_site_label_1
  _geom_bond_atom_site_label_2
  _geom_bond_distance
  _geom_bond_site_symmetry_2
  _geom_bond_publ_flag
 Br1 C4 1.893(2) . ?
 N1 C1 1.397(3) . ?
 N1 C5 1.379(3) . ?
 N1 C6 1.367(3) . ?
 N2 C1 1.326(3) . ?
 N2 C7 1.374(3) . ?
 C1 C2 1.419(3) . ?
 C2 H2 0.9500 . ?
 C2 C3 1.348(4) . ?
 C3 H3 0.9500 . ?
 C3 C4 1.421(3) . ?
 C4 C5 1.350(3) . ?
 C5 H5 0.9500 . ?
 C6 H6 0.9500 . ?
 C6 C7 1.375(3) . ?
 C7 C8 1.467(3) . ?
 C8 C9 1.397(3) . ?
 C8 C13 1.398(3) . ?
 C9 H9 0.9500 . ?
 C9 C10 1.381(4) . ?
 C10 H10 0.9500 . ?
 C10 C11 1.394(4) . ?
 C11 H11 0.9500 . ?
 C11 C12 1.389(4) . ?
 C12 H12 0.9500 . ?
 C12 C13 1.381(4) . ?
 C13 H13 0.9500 . ?

loop_
  _geom_angle_atom_site_label_1
  _geom_angle_atom_site_label_2
  _geom_angle_atom_site_label_3
  _geom_angle
  _geom_angle_site_symmetry_1
  _geom_angle_site_symmetry_3
  _geom_angle_publ_flag
 C5 N1 C1 122.29(19) . . ?
 C6 N1 C1 106.82(19) . . ?
 C6 N1 C5 130.88(19) . . ?
 C1 N2 C7 105.51(18) . . ?
 N1 C1 C2 118.1(2) . . ?
 N2 C1 N1 110.78(19) . . ?
 N2 C1 C2 131.1(2) . . ?
 C1 C2 H2 120.0 . . ?
 C3 C2 C1 120.0(2) . . ?
 C3 C2 H2 120.0 . . ?
 C2 C3 H3 120.2 . . ?
 C2 C3 C4 119.6(2) . . ?
 C4 C3 H3 120.2 . . ?
 C3 C4 Br1 120.11(19) . . ?
 C5 C4 Br1 117.79(17) . . ?
 C5 C4 C3 122.1(2) . . ?
 N1 C5 H5 121.0 . . ?
 C4 C5 N1 117.9(2) . . ?
 C4 C5 H5 121.0 . . ?
 N1 C6 H6 127.0 . . ?
 N1 C6 C7 105.94(19) . . ?
 C7 C6 H6 127.0 . . ?
 N2 C7 C6 110.9(2) . . ?
 N2 C7 C8 121.34(19) . . ?
 C6 C7 C8 127.7(2) . . ?
 C9 C8 C7 121.5(2) . . ?
 C9 C8 C13 118.2(2) . . ?
 C13 C8 C7 120.2(2) . . ?
 C8 C9 H9 119.7 . . ?
 C10 C9 C8 120.6(2) . . ?
 C10 C9 H9 119.7 . . ?
 C9 C10 H10 119.6 . . ?
 C9 C10 C11 120.8(2) . . ?
 C11 C10 H10 119.6 . . ?
 C10 C11 H11 120.6 . . ?
 C12 C11 C10 118.8(2) . . ?
 C12 C11 H11 120.6 . . ?
 C11 C12 H12 119.7 . . ?
 C13 C12 C11 120.5(2) . . ?
 C13 C12 H12 119.7 . . ?
 C8 C13 H13 119.5 . . ?
 C12 C13 C8 121.0(2) . . ?
 C12 C13 H13 119.5 . . ?

loop_
  _geom_torsion_atom_site_label_1
  _geom_torsion_atom_site_label_2
  _geom_torsion_atom_site_label_3
  _geom_torsion_atom_site_label_4
  _geom_torsion
  _geom_torsion_site_symmetry_1
  _geom_torsion_site_symmetry_2
  _geom_torsion_site_symmetry_3
  _geom_torsion_site_symmetry_4
  _geom_torsion_publ_flag
 Br1 C4 C5 N1 -179.40(15) . . . . ?
 N1 C1 C2 C3 1.7(3) . . . . ?
 N1 C6 C7 N2 -0.1(2) . . . . ?
 N1 C6 C7 C8 -179.3(2) . . . . ?
 N2 C1 C2 C3 -179.1(2) . . . . ?
 N2 C7 C8 C9 -177.9(2) . . . . ?
 N2 C7 C8 C13 1.1(3) . . . . ?
 C1 N1 C5 C4 1.0(3) . . . . ?
 C1 N1 C6 C7 0.1(2) . . . . ?
 C1 N2 C7 C6 0.0(2) . . . . ?
 C1 N2 C7 C8 179.33(19) . . . . ?
 C1 C2 C3 C4 -1.1(3) . . . . ?
 C2 C3 C4 Br1 179.45(18) . . . . ?
 C2 C3 C4 C5 0.4(4) . . . . ?
 C3 C4 C5 N1 -0.3(3) . . . . ?
 C5 N1 C1 N2 178.95(19) . . . . ?
 C5 N1 C1 C2 -1.7(3) . . . . ?
 C5 N1 C6 C7 -178.8(2) . . . . ?
 C6 N1 C1 N2 -0.1(2) . . . . ?
 C6 N1 C1 C2 179.22(19) . . . . ?
 C6 N1 C5 C4 179.8(2) . . . . ?
 C6 C7 C8 C9 1.3(3) . . . . ?
 C6 C7 C8 C13 -179.7(2) . . . . ?
 C7 N2 C1 N1 0.1(2) . . . . ?
 C7 N2 C1 C2 -179.2(2) . . . . ?
 C7 C8 C9 C10 178.7(2) . . . . ?
 C7 C8 C13 C12 -178.4(2) . . . . ?
 C8 C9 C10 C11 0.2(4) . . . . ?
 C9 C8 C13 C12 0.6(4) . . . . ?
 C9 C10 C11 C12 -0.3(4) . . . . ?
 C10 C11 C12 C13 0.5(4) . . . . ?
 C11 C12 C13 C8 -0.7(4) . . . . ?
 C13 C8 C9 C10 -0.4(3) . . . . ?

_shelx_res_file
;
TITL sg-v3545-6-13_a.res in Pbca
    sg-v3545-6-13.res
    created by SHELXL-2018/3 at 16:21:06 on 18-Jan-2022
REM Old TITL SG-V3545-6-13, 150K, GA-JET
REM SHELXT solution in Pbca: R1 0.085, Rweak 0.004, Alpha 0.034
REM <I/s> 0.000 for 0 systematic absences, Orientation as input
REM Formula found by SHELXT: C13 N2 Br
CELL 1.34143 5.5348 15.6534 25.0106 90 90 90
ZERR 8 0.0003 0.0009 0.0016 0 0 0
LATT 1
SYMM 0.5-X,-Y,0.5+Z
SYMM -X,0.5+Y,0.5-Z
SYMM 0.5+X,0.5-Y,-Z
SFAC C H N Br
DISP Br -0.95 1.041 8191.511
DISP C 0.015 0.007 57.748
DISP H -0 0 0.648
DISP N 0.025 0.014 110.512
UNIT 104 72 16 8

L.S. 4 0 0
PLAN  20 0 0.5
SIZE 0.02 0.12 0.14
TEMP -123.15
CONF
BOND
list 4
MORE -1
BOND $H
fmap 2 53
acta
REM <olex2.extras>
REM <HklSrc "%.\\SG-V3545-6-13.hkl">
REM </olex2.extras>

WGHT    0.074600    0.666900
FVAR       0.35506
BR1   4    0.660676    0.532773    0.702075    11.00000    0.04520    0.04588 =
         0.03809   -0.00320   -0.00251   -0.00191
N1    3    0.546547    0.610513    0.548408    11.00000    0.02005    0.02770 =
         0.04154   -0.00676   -0.00115    0.00020
N2    3    0.269766    0.595123    0.483656    11.00000    0.02262    0.02874 =
         0.04538   -0.00382   -0.00223   -0.00187
C1    1    0.327990    0.573003    0.533206    11.00000    0.01708    0.02776 =
         0.04464   -0.00617    0.00007    0.00054
C2    1    0.209242    0.519256    0.570567    11.00000    0.02243    0.03104 =
         0.05269   -0.00524    0.00296   -0.00295
AFIX  43
H2    2    0.062668    0.491609    0.561015    11.00000   -1.20000
AFIX   0
C3    1    0.304412    0.507432    0.619608    11.00000    0.02930    0.03102 =
         0.04566   -0.00446    0.00449   -0.00085
AFIX  43
H3    2    0.223950    0.472285    0.644942    11.00000   -1.20000
AFIX   0
C4    1    0.525942    0.547892    0.633172    11.00000    0.02883    0.03239 =
         0.03935   -0.00743   -0.00098    0.00255
C5    1    0.645365    0.598716    0.598463    11.00000    0.02554    0.03209 =
         0.03877   -0.00774   -0.00208   -0.00113
AFIX  43
H5    2    0.792903    0.625512    0.608235    11.00000   -1.20000
AFIX   0
C6    1    0.624911    0.657682    0.505782    11.00000    0.02255    0.03098 =
         0.04124   -0.00492    0.00006   -0.00074
AFIX  43
H6    2    0.768625    0.690695    0.503691    11.00000   -1.20000
AFIX   0
C7    1    0.453132    0.647559    0.466554    11.00000    0.02048    0.02610 =
         0.04476   -0.00613   -0.00030    0.00082
C8    1    0.452835    0.684357    0.412600    11.00000    0.02360    0.02862 =
         0.04316   -0.00729   -0.00096    0.00274
C9    1    0.642802    0.735512    0.394448    11.00000    0.02630    0.03591 =
         0.04569   -0.00846    0.00143   -0.00176
AFIX  43
H9    2    0.774126    0.747988    0.417627    11.00000   -1.20000
AFIX   0
C10   1    0.641461    0.768114    0.343123    11.00000    0.03416    0.03774 =
         0.04877   -0.00420    0.00767   -0.00163
AFIX  43
H10   2    0.772249    0.802619    0.331346    11.00000   -1.20000
AFIX   0
C11   1    0.450532    0.750989    0.308416    11.00000    0.04261    0.03617 =
         0.04196   -0.00218    0.00223    0.00708
AFIX  43
H11   2    0.449776    0.773717    0.273196    11.00000   -1.20000
AFIX   0
C12   1    0.261331    0.700095    0.326232    11.00000    0.03922    0.03915 =
         0.04916   -0.00178   -0.00932    0.00156
AFIX  43
H12   2    0.130619    0.687505    0.302909    11.00000   -1.20000
AFIX   0
C13   1    0.261764    0.667648    0.377599    11.00000    0.02769    0.03464 =
         0.04928   -0.00044   -0.00645   -0.00320
AFIX  43
H13   2    0.130188    0.633459    0.389307    11.00000   -1.20000
AFIX   0
HKLF 4




REM  sg-v3545-6-13_a.res in Pbca
REM wR2 = 0.1126, GooF = S = 1.031, Restrained GooF = 1.031 for all data
REM R1 = 0.0390 for 2097 Fo > 4sig(Fo) and 0.0470 for all 2593 data
REM 145 parameters refined using 0 restraints

END

WGHT      0.0746      0.6630

REM Highest difference peak  0.970,  deepest hole -0.591,  1-sigma level  0.084
Q1    1   0.6639  0.5353  0.6609  11.00000  0.05    0.97
Q2    1   0.6597  0.5323  0.7416  11.00000  0.05    0.80
Q3    1   0.8626  0.5210  0.6987  11.00000  0.05    0.42
Q4    1   0.4788  0.5432  0.7010  11.00000  0.05    0.41
Q5    1   0.4436  0.6766  0.4420  11.00000  0.05    0.30
Q6    1   0.5618  0.7044  0.4002  11.00000  0.05    0.29
Q7    1   0.2633  0.5386  0.5564  11.00000  0.05    0.27
Q8    1   0.3246  0.7353  0.3197  11.00000  0.05    0.26
Q9    1   0.6179  0.5996  0.5629  11.00000  0.05    0.25
Q10   1   0.3532  0.6796  0.3946  11.00000  0.05    0.25
Q11   1   0.6521  0.7441  0.3660  11.00000  0.05    0.24
Q12   1   0.2074  0.7049  0.3216  11.00000  0.05    0.24
Q13   1   0.6006  0.6396  0.5333  11.00000  0.05    0.24
Q14   1   0.2698  0.6890  0.3549  11.00000  0.05    0.24
Q15   1   0.4552  0.5828  0.5415  11.00000  0.05    0.24
Q16   1   0.6370  0.5932  0.6269  11.00000  0.05    0.23
Q17   1   0.6285  0.7595  0.3781  11.00000  0.05    0.23
Q18   1   0.4144  0.5237  0.6227  11.00000  0.05    0.23
Q19   1   0.4806  0.7602  0.3376  11.00000  0.05    0.22
Q20   1   0.8253  0.9000  0.2811  11.00000  0.05    0.22
;
_shelx_res_checksum               91811
_shelx_hkl_file
;
   0  -2   3  150.38    1.22   0
   0  -2   8 1205.10    4.70   0
   0   4   1 9999.99    6.74   0
   0   4  10 1601.65    4.63   0
   1  -5  14  272.50    3.72   0
   2  -8  12   28.16    2.10   0
   0  -2   4 1246.91    3.53   0
   0  -2   7  275.21    2.20   0
   1  -6  11    3.74    1.30   0
   1  -6  10   38.37    1.67   0
   1  -5  13   11.68    1.49   0
   1  -3  16   50.88    2.13   0
   1  -2  17  119.49    2.82   0
   1   0  18  288.08    3.96   0
   2  -6  16  238.14    4.20   0
   0   4   9 2158.06    4.85   0
   1  -6   9  910.47    5.23   0
   1   1  18    0.63    1.55   0
   2  -8  10   17.18    1.76   0
   0   2  10 1430.10    4.80   0
   1  -6   8    7.38    1.21   0
   1  -3  -6  517.54    2.01   0
   1  -3  15  619.43    5.17   0
   1  -2  16 1087.35    6.84   0
   1   4  17  312.64    3.67   0
   2  -8   9  242.25    3.32   0
   2  -7  13   -0.38    1.76   0
   2  -6  15   13.81    2.04   0
   0   2  -1 1275.79    2.39   0
   0   4   0 3958.50    4.83   0
   1  -6   7  980.09    4.90   0
   1  -5  11  186.13    2.70   0
   1  -4  13  621.61    4.86   0
   1   3  17  154.32    2.88   0
   2  -7  12  736.59    5.92   0
   0   0   8 1807.92    5.07   0
   0   2   9  574.81    2.84   0
   0   4   8 2170.97    4.37   0
   1  -6   3  706.84    3.28   0
   1  -6   4  466.90    2.96   0
   1  -6   5 2312.12    6.62   0
   1  -6   6  122.88    1.90   0
   1  -3  14  379.08    3.92   0
   1  -2  15  345.25    3.79   0
   1  -1  16    7.33    1.50   0
   1   2  17  122.56    2.56   0
   2  -5  16   17.02    2.06   0
   2  -2  19  160.47    3.67   0
   3  -8  12    2.81    2.45   0
   1  -5  10  265.97    2.87   0
   2  -8   2    4.47    0.98   0
   2  -7  11   81.40    2.34   0
   1  -5   9  475.78    3.68   0
   1   1  16    6.81    1.43   0
   1   4  16  532.01    4.26   0
   2  -8   3   25.89    1.13   0
   2  -8   4  170.64    2.20   0
   2  -6  13  127.49    2.84   0
   2  -5  15  106.12    2.87   0
   3  -8  11    1.74    2.05   0
   0   0   6 1465.30    3.87   0
   0   2   8 1223.31    3.75   0
   0   4  -1 9949.29    8.54   0
   0   4   7  227.80    1.31   0
   1  -5  -2  354.63    1.14   0
   1  -4  11   47.11    1.67   0
   1  -1  15  398.63    3.85   0
   1   3  16   52.47    1.83   0
   2  -7  10 1324.38    7.20   0
   2  -4  16    1.94    1.76   0
   2  -3  17  107.41    2.96   0
   0   2  -2 1093.96    2.55   0
   1  -5   8   95.53    1.84   0
   1  -4  -5  670.68    1.53   0
   1   5  15  184.13    2.47   0
   2  -6  12  206.62    3.25   0
   2  -5  14  138.23    2.96   0
   3  -8  10    0.81    1.87   0
   3  -7  13   16.81    2.26   0
   0   2   7  284.81    1.72   0
   1  -5   7   86.04    1.70   0
   1  -4  10   69.35    1.78   0
   1   1  15  417.48    3.86   0
   1   4  15  450.40    3.82   0
   2  -4  15   69.72    2.40   0
   2  -2  17    7.06    1.73   0
   3  -8   9   17.01    1.99   0
   0   4  -2 9781.36    9.37   0
   1  -5   6  485.76    3.17   0
   1  -3  -7  151.50    1.23   0
   1   3  15  630.37    4.47   0
   2  -6  11  178.43    2.93   0
   2  -5  13  206.31    3.28   0
   2  -3  16  102.17    2.73   0
   2   0  18    0.51    1.75   0
   3  -6  14  103.13    3.18   0
   0   0   4   86.81    0.85   0
   1  -4   9   26.43    1.39   0
   2  -7   7  125.10    2.23   0
   2  -1  17  152.86    3.14   0
   2   4  18    1.71    2.15   0
   3  -8   8   19.40    1.90   0
   3  -7  11    0.35    1.75   0
   0   2  -3  153.52    1.14   0
   1  -2  12  426.86    3.65   0
   1   5  14  286.75    2.84   0
   2  -7   6  438.49    3.56   0
   2  -6  10   18.33    1.51   0
   2  -5  12  747.84    5.54   0
   2  -4  14   10.15    1.57   0
   2  -2  16    0.84    1.59   0
   2   2  18  221.87    3.73   0
   2   3  18  140.34    3.12   0
   3  -8   7    0.05    1.59   0
   3  -6  13   20.48    2.15   0
   0   2   6   49.29    0.72   0
   0   6   1 2905.65    4.42   0
   0   6   2  146.71    0.90   0
   1  -5   4  142.76    1.62   0
   1  -4   8  442.60    3.25   0
   1  -3  10   20.98    1.37   0
   1   1  14  172.13    2.49   0
   1   4  14  696.52    4.37   0
   2  -7   5  286.19    2.90   0
   0   0   2   18.92    0.29   0
   0   6   0  230.56    1.48   0
   1  -5   3  619.76    2.88   0
   1   3  14  374.02    3.34   0
   2  -6   9  416.86    3.86   0
   2  -1  16   -0.82    1.50   0
   2   1  17  151.00    3.09   0
   3  -8   5    4.98    1.71   0
   3  -6  12    7.90    1.93   0
   1  -5   1   40.75    0.80   0
   1  -2  11   93.31    1.74   0
   1  -1  12   74.06    1.82   0
   2  -5  11   81.78    2.15   0
   2   2  17    4.79    1.72   0
   2   4  17    0.62    1.66   0
   3  -4  15    3.93    2.00   0
   1  -3   9  263.03    2.64   0
   1   5  13   12.65    1.07   0
   2  -7  -1    8.28    0.79   0
   2  -7   3   -1.45    0.87   0
   2  -6   8   61.43    1.79   0
   2   0  16   37.21    1.95   0
   3  -8   4    0.83    1.32   0
   3  -6  11   -0.66    1.71   0
   3  -5  13  329.22    4.48   0
   0   2   5  171.57    1.05   0
   1  -2  10   50.41    1.56   0
   1   0  12 2018.92    7.19   0
   1   4  13  549.77    3.72   0
   2  -7   1    5.25    0.91   0
   2  -5  10  802.35    5.27   0
   2  -4  12  179.68    2.73   0
   2  -1  15  138.07    2.76   0
   3  -1  17  515.39    5.84   0
   1  -3   8  179.66    2.11   0
   1  -1  11   40.69    1.49   0
   1   6  12   28.03    1.21   0
   2  -6   7  152.51    2.30   0
   2  -2  14   56.31    2.01   0
   2   1  16    0.46    1.06   0
   2   5  16   18.18    1.78   0
   3  -3  15  248.20    4.09   0
   3  -2  16   10.25    1.96   0
   1  -4   5  654.41    3.22   0
   1   1  12   75.78    1.72   0
   2  -6   6   -0.16    1.18   0
   2  -5   9  367.00    3.53   0
   2  -4  11  148.20    2.53   0
   2   3  16  103.48    2.52   0
   2   4  16    1.04    1.52   0
   3  -7   7   18.77    1.70   0
   2  -3  12  378.25    3.83   0
   2  -1  14   41.18    1.80   0
   3  -7   6 1295.46    6.90   0
   3  -4  13   -0.01    1.71   0
   3  -1  16   98.32    2.95   0
   3   1  17  517.23    5.67   0
   0   0  -2   14.60    0.26   0
   1  -4   4 5130.81    8.25   0
   1  -3   7  158.25    1.86   0
   1   2  12  386.54    3.13   0
   1   5  12   30.47    1.16   0
   2  -5   8  713.64    4.55   0
   2  -2  13    5.14    1.32   0
   3  -5  11   18.28    1.83   0
   0   2   4 1271.48    2.32   0
   2   2  15   57.50    1.98   0
   3  -7   5    1.36    1.35   0
   3  -4  12    4.09    1.58   0
   3   0  16   40.53    2.30   0
   1   1  11   47.20    1.43   0
   2  -1  13  687.66    4.97   0
   2   0  14   40.71    1.52   0
   2   4  15   71.83    2.10   0
   3  -5  10    6.48    1.54   0
   3  -3  13  667.96    5.79   0
   3  -1  15  509.87    5.31   0
   3   1  16   98.97    2.84   0
   1  -3   6  522.31    2.92   0
   1  -1   9  446.50    3.01   0
   1   0  10  289.50    2.57   0
   2   1  14   40.52    1.71   0
   3   2  16   10.92    1.93   0
   4  -6   8    5.57    2.04   0
   0   0  -4   64.25    0.67   0
   1  -4  -7 1157.12    2.52   0
   1   2  11   99.27    1.70   0
   1   5  11  187.33    2.06   0
   2  -6   3   15.01    0.97   0
   2   6  14   17.36    1.72   0
   3  -6   7   10.97    1.43   0
   3  -4  11    4.25    1.51   0
   1  -4   2  706.31    2.60   0
   1   3  11   32.78    1.20   0
   1   4  11   42.51    1.19   0
   2  -5   6    1.17    0.98   0
   2   2  14   58.69    1.86   0
   2   5  14  135.19    2.53   0
   3  -5   9   87.93    2.27   0
   3  -3  12  302.13    3.84   0
   3  -1  14   11.81    1.72   0
   1  -3   5  869.07    3.42   0
   1   1  10   91.68    1.58   0
   2  -4   8  509.20    3.66   0
   2  -1  12    1.51    1.12   0
   2   4  14    9.32    1.34   0
   3  -6   6   12.49    1.37   0
   4  -5   9   41.92    2.42   0
   2   1  13  702.89    4.71   0
   3  -7   1   22.02    1.33   0
   3  -4  10    5.56    1.35   0
   3   0  14   79.53    2.32   0
   3   2  15   32.08    1.99   0
   1  -4   1   33.75    0.61   0
   1   2  10   49.23    1.23   0
   2  -5   5    2.98    0.91   0
   2   0  12   38.76    1.47   0
   2   2  13    4.62    1.13   0
   3  -6   5    6.81    1.17   0
   3  -3  11   -0.01    1.24   0
   3  -2  12   16.28    1.52   0
   3   4  15    1.35    1.58   0
   4  -4  10   39.48    2.32   0
   2  -9 -11  231.38    4.48   0
   2  -8  -8  133.75    3.17   0
   3  -7  -8  293.90    4.90   0
   3  -6  -6   12.68    2.19   0
   4  -7 -19    5.93    3.09   0
   4  -7 -18   59.67    3.80   0
   4  -7 -17    2.64    3.11   0
   4  -7 -16    0.94    3.07   0
   4  -6 -11   62.06    3.79   0
   4  -4  -7   43.14    3.22   0
   4  -2  -5    0.44    2.27   0
   4  -1  -4    7.91    2.30   0
   5  -3 -16    2.25    2.97   0
   5  -3 -15   22.04    3.41   0
   5  -3 -14   32.17    3.53   0
   5  -2 -23    1.45    2.38   0
   5  -2 -12  108.51    4.38   0
   5   0 -10   18.46    3.31   0
   3  -9 -18   70.27    4.28   0
   3  -9 -17    8.98    3.19   0
   3  -5  -4 1417.28    8.87   0
   3  -3  -2  534.30    5.26   0
   4  -7 -20   84.81    3.91   0
   4  -7 -15    9.23    3.32   0
   4  -6 -10   38.40    3.49   0
   4  -5  -8  376.55    6.19   0
   4   1  -3  702.18    6.86   0
   4   2  -3    1.39    2.27   0
   5  -3 -22    1.03    2.61   0
   5  -1 -10   -2.19    3.06   0
   5   3  -9   66.48    3.77   0
   2  -9 -10  687.85    6.44   0
   2  -8  -7  576.17    5.64   0
   3  -9 -20   22.32    3.26   0
   3  -9 -15   48.56    3.56   0
   3  -7  -7   20.00    2.55   0
   4  -7 -13    7.52    3.21   0
   4  -6 -25    5.28    2.10   0
   4  -4  -6   28.01    2.90   0
   4  -3  -5  228.14    4.64   0
   4  -2  -4  115.41    3.58   0
   5  -4 -20    0.71    2.63   0
   5  -4 -19   55.48    3.64   0
   5  -4 -18   24.07    3.16   0
   5  -4 -17   79.56    4.02   0
   5  -3 -23    0.49    2.27   0
   5  -3 -12    2.95    3.05   0
   5  -2 -10   13.59    3.42   0
   5  -1  -9   30.62    3.46   0
   5   2  -8  335.09    5.93   0
   3  -9 -21    1.82    3.03   0
   3  -9 -13    1.88    2.87   0
   3  -8  -9   20.03    2.80   0
   4  -7 -23    0.10    2.54   0
   4  -7 -12  159.47    4.85   0
   4  -6  -9  244.01    5.33   0
   4  -5  -7  338.83    5.80   0
   4  -1  -3  674.76    6.85   0
   5  -4 -21    1.24    2.60   0
   5  -3 -11    1.77    3.12   0
   5   0  -8  670.90    8.12   0
   5   3  -8   -0.60    3.00   0
   2  -9  -9   61.85    2.78   0
   3  -5  -3  499.06    5.40   0
   4  -7 -11   -0.04    3.02   0
   4  -6  -8    6.42    2.96   0
   5  -5 -18    2.98    2.80   0
   5  -5 -17    2.22    2.90   0
   5  -4 -22    6.37    2.52   0
   5  -2  -9  152.06    4.82   0
   5  -1  -8    0.34    3.03   0
   5   1  -7   -0.23    3.00   0
   5   2  -7   16.20    3.16   0
   5   4  -8   -0.44    3.02   0
   3  -9 -11    0.01    2.75   0
   3  -8  -8   20.73    2.66   0
   3  -6  -4   82.21    2.88   0
   3  -3  -1  203.24    3.47   0
   4  -8 -20    1.53    2.95   0
   4  -8 -19   50.07    3.63   0
   4  -8 -16    2.27    3.03   0
   4  -8 -14    0.56    3.03   0
   4  -5  -6   13.17    2.83   0
   4  -2  -3    1.51    2.31   0
   4   2  -2  511.23    5.66   0
   5  -5 -20    2.00    2.59   0
   5  -5 -19    0.80    2.72   0
   5  -5 -15    6.40    3.11   0
   5  -5 -14   22.22    3.33   0
   5  -4 -23   68.30    3.11   0
   5  -4 -11   20.23    3.39   0
   5  -3  -9   70.30    3.92   0
   5  -2  -8  348.93    6.37   0
   5  -1  -7   -1.75    2.93   0
   5   3  -7    1.20    2.98   0
   2  -9  -8  406.48    5.15   0
   4  -8 -13  163.72    4.88   0
   4  -7  -9   19.80    3.29   0
   4  -6  -7  196.75    4.82   0
   4  -4  -4   27.09    2.71   0
   4  -1  -2   73.05    3.03   0
   5  -5 -13   28.69    3.49   0
   5  -4 -10   44.91    3.81   0
   5   1  -6    1.01    2.97   0
   5   2  -6  299.73    5.55   0
   3 -10 -17   10.67    3.46   0
   3  -9 -10   29.09    3.06   0
   3  -7  -5    0.92    2.20   0
   4  -8 -22    1.68    2.70   0
   4  -3  -3   55.11    3.06   0
   5  -6 -18    4.84    3.16   0
   5  -6 -17   37.07    3.31   0
   5  -6 -16   28.25    3.22   0
   5  -5 -22    1.08    2.28   0
   5  -3  -8   -0.34    2.95   0
   5  -2  -7   16.19    3.32   0
   5  -1  -6    0.84    3.03   0
   5   3  -6   12.32    3.05   0
   3 -10 -15    2.87    3.03   0
   3 -10 -14    5.80    3.05   0
   3  -9  -9   58.52    3.26   0
   3  -6  -3  170.83    3.61   0
   4  -8 -11  278.69    5.79   0
   4  -7  -8  461.36    6.80   0
   4  -6  -6  115.03    4.06   0
   4   1  -1  546.51    5.87   0
   5  -6 -20   18.04    2.72   0
   5  -6 -19   54.01    3.36   0
   5  -6 -15  121.56    4.38   0
   5  -6 -14   15.41    3.25   0
   5  -3  -7    3.32    2.97   0
   5   1  -5   68.41    4.03   0
   3 -10 -13   -0.92    2.93   0
   3  -8  -6   26.31    2.63   0
   3  -7  -4  918.31    7.54   0
   4  -9 -17   -0.55    2.94   0
   4  -9 -16    2.27    3.12   0
   4  -8 -10   -0.79    3.04   0
   4  -7  -7   -2.20    2.85   0
   4  -4  -3  186.23    4.30   0
   4  -3  -2  362.02    5.35   0
   4   2  -1  234.56    4.08   0
   5  -6 -21    0.49    2.46   0
   5  -6 -13  103.55    4.23   0
   5  -6 -12    4.67    2.98   0
   5  -4  -8    1.86    3.05   0
   5  -2  -6  285.99    5.75   0
   5  -1  -5   70.06    3.74   0
   5   2  -5   64.17    3.68   0
   3 -10 -12   41.00    3.33   0
   4  -9 -20   43.91    3.48   0
   4  -9 -19   -1.67    2.84   0
   4  -8  -9  149.21    4.62   0
   4  -6  -5   -4.37    2.67   0
   5  -6 -22   26.39    2.57   0
   5  -6 -11   25.72    3.45   0
   5  -4  -7  208.58    5.30   0
   5  -3  -6   15.05    3.25   0
   5  -2  -5   65.13    3.72   0
   6   1 -18    1.04    2.36   0
   6   1 -17    4.98    2.55   0
   6   1 -16    4.60    2.65   0
   6   1 -15    0.64    2.72   0
   6   2 -17    5.62    2.49   0
   6   2 -16    5.38    2.62   0
   6   2 -15    1.15    2.93   0
   2  -9  -6   85.70    2.83   0
   2  -8  -4  206.98    3.45   0
   3 -10 -11    1.87    2.82   0
   3  -8  -5    3.79    2.34   0
   3  -6  -2    0.71    1.87   0
   3  -5  -1    0.49    1.76   0
   3  -2   1  442.09    4.60   0
   4  -8  -8   35.79    3.28   0
   4  -7  -6   -0.31    2.72   0
   5  -7 -19    2.54    2.51   0
   5  -7 -18    8.94    2.77   0
   5  -7 -17    1.90    2.75   0
   5  -7 -16   21.84    3.10   0
   5  -7 -15    0.60    2.88   0
   5  -7 -14   21.15    3.20   0
   5  -6 -10    8.58    3.21   0
   5   1  -4    3.93    2.90   0
   6  -1 -18    1.66    2.37   0
   6  -1 -17    4.75    2.53   0
   6  -1 -16    4.92    2.63   0
   6  -1 -15    1.20    2.60   0
   6  -1 -14    3.04    2.67   0
   6   1 -13    0.92    2.84   0
   6   2 -14    6.85    2.87   0
   6   2 -13    0.35    3.12   0
   6   3 -16    4.45    2.83   0
   6   3 -15    3.34    2.85   0
   3 -10 -10    7.29    2.85   0
   3  -7  -3  194.97    3.88   0
   4  -6  -4  388.73    5.98   0
   4  -3  -1  472.03    5.94   0
   4   1   0  145.14    3.48   0
   5  -7 -20   -0.56    2.38   0
   5  -7 -13   17.17    3.20   0
   5  -7 -12   17.68    3.17   0
   5  -6  -9   14.51    3.24   0
   5  -4  -6  579.64    7.83   0
   5  -3  -5   58.08    3.68   0
   5  -1  -4   -0.22    2.85   0
   5   3  -4   28.03    3.06   0
   6  -2 -18   38.45    2.74   0
   6  -2 -16    8.02    2.63   0
   6  -2 -15    3.32    2.60   0
   6  -2 -14    6.63    2.64   0
   6  -1 -13   -0.11    2.84   0
   6   1 -12   12.31    3.06   0
   6   3 -14   -0.43    2.77   0
   6   3 -13    1.14    3.16   0
   2  -7  -2 1531.54    7.88   0
   3 -10  -9    5.51    3.16   0
   3  -3   1  196.52    3.33   0
   4  -8  -7   24.61    3.16   0
   4  -7  -5    6.70    2.88   0
   4  -1   0  141.87    3.58   0
   4   2   0  215.36    3.90   0
   5  -7 -21    1.20    2.34   0
   5  -7 -11    5.31    3.03   0
   5   1  -3   86.83    4.04   0
   6  -3 -17    6.87    2.37   0
   6  -3 -16    5.27    2.39   0
   6  -3 -15    4.28    2.84   0
   6  -2 -13   -1.39    2.68   0
   6  -2 -12  146.32    4.69   0
   6  -1 -12   12.02    2.91   0
   6  -1 -11   31.93    3.16   0
   6   1 -11   32.90    3.36   0
   6   2 -11   80.20    4.01   0
   2  -9  -5   20.61    2.11   0
   2  -8  -3   28.51    2.16   0
   3  -8  -4   -0.61    2.06   0
   3  -6  -1    0.43    1.81   0
   4 -10 -17    0.44    3.08   0
   4 -10 -16    3.66    3.25   0
   4 -10 -15   16.59    3.47   0
   4  -9  -9    8.90    3.00   0
   4  -6  -3  266.59    5.06   0
   4  -5  -2  689.14    7.37   0
   4  -4  -1   79.93    3.21   0
   4  -2   0  221.04    4.24   0
   5  -7 -10   18.62    3.25   0
   5  -5  -6   10.98    3.24   0
   5  -4  -5  324.38    6.06   0
   5  -3  -4   30.73    3.36   0
   5  -1  -3   87.65    3.76   0
   5   2  -3   48.53    3.36   0
   6  -3 -18    0.62    2.11   0
   6  -3 -14    0.34    2.47   0
   6  -3 -13   -1.37    2.63   0
   6  -2 -11   85.29    3.83   0
   6   2 -10  122.77    4.38   0
   2 -10  -7    4.95    2.54   0
   3  -7  -2  501.51    5.59   0
   3  -4   1  161.73    3.14   0
   3  -2   2  327.39    3.97   0
   4 -10 -19   35.44    3.23   0
   4 -10 -18    3.93    2.76   0
   4 -10 -14   10.69    3.06   0
   4 -10 -13   51.63    3.51   0
   4  -8  -6    1.20    2.78   0
   4  -7  -4  242.42    5.06   0
   5  -8 -18    5.45    2.60   0
   5  -8 -17   78.87    3.42   0
   5  -8 -15  145.72    4.31   0
   5  -8 -14   21.97    3.13   0
   5  -8 -13   96.21    3.93   0
   5  -7  -9    9.28    3.06   0
   5  -2  -3   48.13    3.48   0
   5   3  -3   25.20    2.98   0
   6  -4 -16    1.03    2.37   0
   6  -4 -15   11.97    2.56   0
   6  -3 -12    0.25    2.67   0
   6  -2 -10  125.98    4.25   0
   6   1  -9   16.77    3.15   0
   3 -11 -12   43.88    3.29   0
   4 -10 -12    1.24    2.92   0
   4  -9  -8  299.87    5.66   0
   4  -1   1  555.02    5.96   0
   4   1   1  560.66    5.73   0
   5  -8 -12    3.19    2.89   0
   5  -7  -8    2.86    2.98   0
   5  -5  -5    1.67    2.96   0
   5  -4  -4   13.39    3.05   0
   5  -3  -3   28.74    3.17   0
   5  -1  -2    0.63    2.64   0
   5   0  -2   42.25    3.25   0
   5   1  -2    1.55    2.70   0
   6  -4 -14   10.81    2.52   0
   6  -4 -13   18.05    2.79   0
   6  -3 -11   41.72    3.23   0
   6  -2  -9    1.23    2.80   0
   6  -1  -9   15.82    3.02   0
   6   2  -9    0.01    2.88   0
   2  -9  -4  171.07    3.26   0
   2  -7  -1    6.15    1.53   0
   3 -11 -11   73.28    3.51   0
   3 -10  -7  163.17    4.12   0
   3  -3   2  528.60    5.02   0
   4  -9  -7   -3.60    2.83   0
   4  -8  -5    8.35    2.80   0
   4  -7  -3    2.98    2.62   0
   4  -6  -2    2.67    2.46   0
   4  -4   0  294.46    4.88   0
   4   2   1  243.76    3.98   0
   5  -8 -11   19.38    3.06   0
   5  -8 -10    0.97    2.83   0
   5  -2  -2  584.07    7.28   0
   5   2  -2  580.08    6.64   0
   6  -5 -15    2.00    2.64   0
   6  -4 -12   72.87    3.47   0
   6  -4 -11  144.75    4.33   0
   6   0  -8   79.50    3.70   0
   6   1  -8    3.82    3.07   0
   6   2  -8   84.26    3.99   0
   2 -10  -6  128.81    3.18   0
   2  -8  -2    5.87    1.67   0
   3 -11 -10   10.15    2.78   0
   3  -9  -4 1332.55    9.23   0
   3  -7  -1   23.11    2.19   0
   3  -5   1    2.06    1.71   0
   5  -8  -9    2.04    2.87   0
   5  -7  -7    4.32    2.98   0
   5  -5  -4   38.46    3.38   0
   5  -3  -2    8.71    2.78   0
   6  -5 -13    9.79    2.55   0
   6  -4 -10   59.16    3.46   0
   6  -2  -8   87.48    3.89   0
   6   1  -7   12.90    3.33   0
   3 -11  -9   16.50    3.18   0
   3 -10  -6  119.98    3.72   0
   3  -8  -2   23.37    2.34   0
   3  -4   2    7.38    1.70   0
   3  -1   3 1207.94    6.96   0
   4  -9  -6   99.09    3.96   0
   4  -8  -4   98.83    3.81   0
   4  -5   0  452.25    5.91   0
   5  -9 -18    4.08    2.51   0
   5  -9 -15    0.01    2.59   0
   5  -9 -14   11.56    2.79   0
   5  -9 -13    0.00    2.66   0
   5  -7  -6   19.71    3.18   0
   5   1  -1   50.56    3.18   0
   6  -5 -12    5.80    2.62   0
   6  -5 -11   13.52    2.75   0
   6  -4  -9   34.38    3.17   0
   6  -3  -8   12.30    2.93   0
   6  -2  -7   16.82    3.08   0
   6   2  -7   17.73    3.05   0
   2 -10  -5   17.27    2.44   0
   2  -9  -3   42.33    2.17   0
   2  -7   0  976.24    6.09   0
   3  -9  -3    0.66    2.17   0
   3  -2   3    1.50    1.51   0
   4 -11 -16    0.97    3.00   0
   4 -11 -15   -0.35    2.71   0
   4 -11 -14   59.55    3.72   0
   4  -9  -5    6.31    2.77   0
   4  -7  -2   46.86    2.56   0
   4  -4   1   77.92    3.11   0
   4  -1   2   72.92    2.86   0
   4   1   2   76.63    2.79   0
   5  -9 -19    2.90    2.10   0
   5  -9 -12   21.26    2.98   0
   5  -9 -11    5.86    2.71   0
   5  -8  -8   -0.11    2.84   0
   5  -6  -4   66.86    3.99   0
   5  -2  -1  156.30    4.40   0
   5   2  -1  152.47    3.99   0
   6  -6 -16   10.81    2.22   0
   6  -6 -15    0.85    2.16   0
   6  -6 -14   22.61    2.55   0
   6  -5 -10    9.38    2.77   0
   6  -4  -8    7.30    2.88   0
   6  -3  -7    1.21    2.80   0
   6   0  -6    2.86    2.94   0
   6   1  -6   13.93    2.99   0
   2  -8  -1  463.78    4.48   0
   3 -11  -8  438.81    5.91   0
   3 -10  -5    8.20    2.55   0
   3  -6   1    1.55    1.72   0
   3  -3   3  931.15    6.43   0
   4 -11 -13   32.80    3.19   0
   4 -11 -12   26.86    3.17   0
   4  -2   2  468.25    5.54   0
   4   2   2  516.12    5.18   0
   5  -9 -10    7.26    2.83   0
   5  -8  -7  215.31    5.21   0
   5  -7  -5   14.35    3.10   0
   5  -3  -1   12.20    2.91   0
   6  -5  -9   53.76    3.36   0
   6  -2  -6   13.79    2.91   0
   6   2  -6   14.96    2.99   0
   4 -11 -11   19.33    3.08   0
   4  -9  -4  211.20    4.74   0
   4  -5   1  168.52    3.96   0
   4  -3   2  345.59    4.98   0
   5  -9  -9    5.52    2.79   0
   5  -8  -6   26.20    3.23   0
   5  -6  -3  299.37    5.79   0
   5  -5  -2   63.80    3.59   0
   6  -6 -10   18.04    2.69   0
   6  -5  -8   24.34    2.94   0
   6  -4  -7   39.19    3.20   0
   6  -3  -6    2.65    2.75   0
   6  -2  -5   -0.48    2.82   0
   6  -1  -5   28.76    3.20   0
   6   1  -5   26.36    3.09   0
   2 -10  -4    0.61    1.80   0
   2  -9  -2  487.49    4.72   0
   3  -9  -2   92.92    3.17   0
   3  -4   3   74.87    2.38   0
   3  -1   4   22.76    1.61   0
   4 -11 -10  112.74    3.95   0
   4  -8  -2    6.78    2.62   0
   4  -4   2  111.85    3.38   0
   5 -10 -15   34.19    2.92   0
   5  -7  -4   56.75    3.53   0
   6  -7 -15   -1.04    2.02   0
   6  -7 -13    1.44    2.09   0
   6  -6  -9   76.73    3.43   0
   6  -5  -7   32.13    2.99   0
   6  -4  -6   15.59    3.02   0
   2  -7   1   11.34    1.51   0
   3 -11  -6   15.40    2.75   0
   3  -7   1   31.14    2.22   0
   3  -2   4   17.26    1.65   0
   4 -11  -9  113.52    3.99   0
   4  -7   0  674.87    7.17   0
   4  -2   3    1.18    2.01   0
   4   1   3  708.03    6.01   0
   5 -10 -17   58.70    2.70   0
   5 -10 -12    0.61    2.61   0
   5  -9  -7    9.45    2.80   0
   5  -8  -5  458.40    6.81   0
   5  -6  -2   18.07    2.96   0
   5  -5  -1    1.47    2.85   0
   6  -7 -11    8.06    2.31   0
   6  -6  -8   11.36    2.68   0
   6  -2  -4   13.49    2.99   0
   6  -1  -4    1.44    2.88   0
   6   0  -4    5.17    2.91   0
   6   1  -4    0.95    2.74   0
   3  -3   4  479.74    4.58   0
   4 -11  -8   41.79    3.21   0
   4 -10  -5    4.80    2.64   0
   4  -8  -1  172.70    4.26   0
   4  -5   2  675.31    6.87   0
   4  -3   3   61.32    2.77   0
   5 -10 -11    1.63    2.45   0
   5 -10 -10    5.29    2.62   0
   5  -2   1  175.26    4.39   0
   5   1   1   48.89    3.31   0
   6  -7 -10   -0.69    2.29   0
   6  -6  -7   85.26    3.49   0
   6  -5  -6   -2.39    2.62   0
   6  -4  -5   21.40    2.91   0
   6  -3  -4   43.23    3.36   0
   3 -11  -5  268.88    4.71   0
   3  -9  -1    1.25    2.09   0
   4 -11  -7   12.96    2.75   0
   4  -9  -2  131.67    3.96   0
   4  -4   3  190.31    3.92   0
   4   2   3    0.74    1.78   0
   5  -9  -6    3.12    2.78   0
   5  -8  -4   12.55    2.18   0
   5  -6  -1   19.87    2.98   0
   5  -3   1   11.81    2.76   0
   6  -5  -5   -1.65    2.57   0
   6  -4  -4    7.09    2.77   0
   6   1  -3   51.49    3.62   0
   3 -12  -8   -0.29    2.58   0
   3  -8   1   19.27    2.13   0
   3  -7   2  529.34    5.46   0
   3  -6   3  173.75    3.27   0
   4 -12 -13   -1.39    2.52   0
   4 -12 -12   60.52    3.12   0
   4  -8   0   22.35    2.69   0
   4  -7   1    6.90    2.45   0
   5 -10  -8   -0.50    2.58   0
   5  -9  -5    2.59    2.81   0
   5  -8  -3   91.87    3.80   0
   5   2   1  163.00    3.87   0
   6  -8 -13   92.36    3.03   0
   6  -8 -12    8.45    2.21   0
   6  -8 -11   78.13    3.24   0
   6  -6  -6    5.65    2.54   0
   2  -7   2 1535.56    7.34   0
   3 -12  -7    0.36    2.90   0
   3  -1   5 2400.50    8.99   0
   4 -12 -11   77.13    3.34   0
   4 -12 -10   67.78    3.52   0
   4 -11  -6    1.86    2.61   0
   4 -10  -3  250.62    4.90   0
   4  -9  -1   26.87    2.78   0
   4  -5   3   92.75    3.18   0
   4  -3   4    9.65    2.02   0
   4   0   4   89.41    2.80   0
   5 -10  -7  148.15    4.18   0
   5  -2   2  581.05    6.80   0
   5  -1   2    4.85    2.61   0
   5   0   2   43.78    3.01   0
   6  -8 -10    1.24    2.23   0
   6  -6  -5    2.39    2.49   0
   6  -5  -4   -0.36    2.56   0
   6  -4  -3   21.15    3.00   0
   6  -1  -2    7.41    2.76   0
   6   0  -2  171.89    4.30   0
   2 -10  -2   36.64    2.10   0
   2  -6   3   13.39    1.48   0
   3  -3   5 1207.40    6.88   0
   4 -12  -9   71.05    3.26   0
   4   1   4    7.14    1.81   0
   5 -11 -15    5.24    2.23   0
   5 -11 -14   11.20    2.25   0
   5 -11 -13    1.74    2.22   0
   5 -11 -12    5.33    2.38   0
   5 -11 -11   -0.76    2.59   0
   5 -10  -6  118.15    4.19   0
   5  -8  -2    3.54    2.74   0
   5  -5   1    7.44    2.64   0
   5  -3   2    5.57    2.63   0
   5   1   2    0.27    2.41   0
   6  -8  -9   92.06    3.29   0
   6  -7  -6   -0.89    2.39   0
   6  -5  -3   11.44    2.69   0
   6  -3  -2    3.10    2.70   0
   2  -9   0 1906.46    8.64   0
   3 -12  -6    1.19    2.41   0
   3  -8   2   22.95    2.11   0
   3  -7   3  188.37    3.48   0
   4 -12  -8   41.77    2.98   0
   4 -10  -2    2.01    2.55   0
   4  -8   1  160.38    4.01   0
   4  -7   2   46.97    2.83   0
   4  -6   3  264.24    4.63   0
   4  -4   4   23.65    2.30   0
   5  -9  -3    7.58    2.69   0
   5  -4   2   23.55    2.89   0
   6  -8  -8    4.84    2.26   0
   6  -7  -5   14.79    2.61   0
   6  -4  -2   47.12    3.22   0
   6  -1  -1    8.46    2.73   0
   3  -9   1    4.02    2.04   0
   3  -6   4   79.73    2.49   0
   3  -4   5    0.50    1.40   0
   4 -12  -7    9.57    2.96   0
   4  -9   0  824.31    7.89   0
   4  -5   4   18.02    2.28   0
   4  -2   5    1.91    1.93   0
   5  -8  -1   86.22    3.65   0
   5  -2   3   54.17    3.19   0
   5  -1   3   88.79    3.42   0
   6  -9 -11    0.10    1.96   0
   6  -8  -7    3.09    2.30   0
   6  -6  -3   67.85    3.26   0
   6  -5  -2   77.90    3.47   0
   6  -3  -1   26.84    2.94   0
   2 -11  -3  304.18    3.94   0
   2 -10  -1  222.60    3.39   0
   2  -7   3   -1.54    1.29   0
   3 -12  -5   22.37    2.64   0
   3 -11  -2  133.59    3.55   0
   3  -5   5  480.96    4.75   0
   4  -8   2    5.59    2.24   0
   4  -7   3    2.58    2.16   0
   4  -3   5  234.54    4.04   0
   5 -11  -7   10.92    2.86   0
   5 -10  -4   36.38    2.99   0
   5   1   3   89.71    3.21   0
   6  -9 -10    2.25    1.91   0
   6  -9  -9    2.48    2.02   0
   6  -8  -6    2.28    2.35   0
   6  -7  -4   18.48    2.63   0
   6  -4  -1  111.10    3.86   0
   6   1  -1    6.26    2.70   0
   2  -9   1  109.05    2.51   0
   2  -6   4  249.70    3.07   0
   3  -8   3  101.37    2.85   0
   3  -7   4  885.85    6.67   0
   3  -3   6  321.02    3.67   0
   3  -2   6   81.51    2.12   0
   3  -1   6  372.84    3.69   0
   4 -12  -6    0.10    2.52   0
   4  -9   1   25.86    2.73   0
   4  -6   4  387.55    5.34   0
   4  -4   5   72.46    2.88   0
   4   1   5    1.55    1.57   0
   6  -9  -8   -0.94    2.10   0
   6  -8  -5   -0.49    2.23   0
   6  -7  -3    0.31    2.73   0
   6  -6  -2   38.20    2.99   0
   6  -5  -1   -0.90    2.48   0
   6  -3   0   14.87    2.70   0
   6  -2   0  400.18    5.84   0
   6   0   0  327.92    5.16   0
   7  -2  -8    4.33    1.90   0
   3 -12  -4    1.91    2.34   0
   3  -9   2   84.13    2.84   0
   3  -6   5    6.67    1.62   0
   4 -12  -5    2.12    2.46   0
   4 -10   0  192.85    4.32   0
   4  -5   5   56.77    2.69   0
   5 -11  -6    1.29    2.26   0
   5 -10  -3   59.56    3.21   0
   5  -3   4   29.27    2.77   0
   5  -1   4    3.34    2.47   0
   6  -9  -7   25.18    2.41   0
   6  -4   0  242.99    4.91   0
   7  -3  -8    3.93    1.56   0
   7  -2  -7    1.08    2.07   0
   2 -11  -2  253.47    3.62   0
   2 -10   0  106.87    2.56   0
   3 -12  -3    5.40    2.72   0
   3 -11  -1    3.92    2.21   0
   3 -10   1    5.30    2.13   0
   3  -4   6    2.93    1.07   0
   4 -12  -4   11.89    2.87   0
   4  -9   2  127.80    3.66   0
   4  -8   3  149.42    3.84   0
   4  -3   6    1.57    1.93   0
   4  -2   6   13.16    2.01   0
   4  -1   6   10.53    2.00   0
   5 -12 -13    0.20    1.02   0
   5 -12 -12   27.01    1.94   0
   5 -12 -12    8.07    1.22   0
   5 -12 -10   13.93    2.24   0
   5 -11  -5    2.95    2.41   0
   5  -8   1   86.14    3.53   0
   5  -4   4   16.24    2.66   0
   5   0   4  710.35    6.78   0
   6  -9  -6   16.98    2.30   0
   6  -7  -2    0.36    2.25   0
   6  -6  -1  245.00    4.83   0
   6  -5   0    1.04    2.48   0
   6  -3   1   22.56    2.75   0
   6  -2   1  140.00    3.95   0
   6  -1   1    1.42    2.63   0
   7  -3  -7   44.10    2.33   0
   2  -9   2  466.33    4.36   0
   2  -8   3   25.55    1.65   0
   3  -8   4    0.98    1.76   0
   3  -5   6 1717.24    8.56   0
   4 -13  -8   65.44    2.90   0
   4  -4   6   29.89    2.33   0
   4   0   6    3.00    1.73   0
   5 -12  -8   35.83    2.77   0
   5 -11  -4   39.69    2.77   0
   5 -10  -2    1.09    2.34   0
   5   1   4    3.43    2.25   0
   6 -10 -10    5.93    1.78   0
   6 -10  -9   67.13    2.50   0
   6  -9  -5   39.25    2.52   0
   6  -4   1  112.55    3.70   0
   7  -4  -7    5.24    1.55   0
   7  -3  -6    0.62    1.92   0
   7  -2  -6    4.38    1.54   0
   7  -1  -6    7.73    1.75   0
   2 -11  -1  364.50    4.26   0
   2  -6   5  380.88    3.67   0
   3 -12  -2    1.92    2.65   0
   3  -2   7   59.03    1.90   0
   4 -13  -7   44.37    2.78   0
   4 -12  -3    8.79    2.47   0
   4  -5   6   15.98    2.13   0
   4   1   6   10.65    1.66   0
   5 -12  -7   27.74    2.44   0
   5 -10  -1    1.14    2.39   0
   5  -8   2    4.10    2.45   0
   5  -3   5   59.23    3.04   0
   5  -1   5   74.55    3.09   0
   6 -10  -8   10.37    2.03   0
   6  -7  -1    0.83    2.29   0
   6  -5   1   -0.41    2.33   0
   7  -4  -6   10.56    2.00   0
   7  -3  -5   17.18    2.25   0
   7  -2  -5    0.36    1.98   0
   2 -10   1  220.03    3.26   0
   3 -10   2   -0.10    1.92   0
   3  -6   6   11.62    1.70   0
   3  -4   7   95.51    2.34   0
   4 -13  -6    2.76    2.65   0
   4  -8   4  100.21    3.31   0
   5 -12  -6   80.70    2.93   0
   5 -11  -3   12.66    2.48   0
   5  -9   1   -0.52    2.39   0
   6 -10  -7   16.26    2.10   0
   6  -9  -4    8.52    2.08   0
   6  -2   2  142.91    3.83   0
   2  -8   4  186.73    2.86   0
   2  -5   6    1.15    1.20   0
   3 -11   1    7.19    2.20   0
   3  -8   5    3.85    1.70   0
   4 -13  -5    2.11    2.60   0
   4 -12  -2   68.67    3.10   0
   4  -6   6  106.95    3.27   0
   4  -3   7  272.33    4.25   0
   4  -1   7   98.90    2.82   0
   5 -11  -2    1.29    2.20   0
   5  -5   5   -1.51    2.40   0
   5   1   5   72.49    3.15   0
   6 -10  -6   22.09    2.11   0
   6  -9  -3    2.50    2.04   0
   6  -8  -1  139.91    3.65   0
   6  -7   0    4.37    2.32   0
   6  -6   1  226.80    4.53   0
   7  -5  -5   28.15    2.20   0
   7  -3  -4    0.92    1.95   0
   7  -2  -4   64.96    2.54   0
   7  -1  -4    1.08    2.01   0
   2 -11   0  791.76    5.71   0
   2  -7   5  273.69    3.27   0
   3 -12  -1   69.32    2.92   0
   3 -10   3    1.28    1.89   0
   3  -7   6 1427.03    8.23   0
   4  -9   4  215.87    4.28   0
   4  -8   5   13.52    2.29   0
   5  -3   6   13.21    2.46   0
   6 -10  -5    2.04    1.96   0
   6  -9  -2   11.80    2.13   0
   6  -5   2   67.35    3.09   0
   6  -2   3    5.81    2.41   0
   2 -10   2   34.75    1.89   0
   2  -6   6   -0.57    1.19   0
   3 -13  -3  295.43    4.61   0
   4 -13  -4    0.66    2.26   0
   4 -10   3  242.82    4.51   0
   4  -5   7  330.33    4.74   0
   5 -11  -1    4.43    2.30   0
   5 -10   1   -0.83    2.22   0
   5  -1   6    0.54    2.24   0
   6 -10  -4   10.09    2.12   0
   6  -8   0    7.77    2.23   0
   6  -7   1    0.63    2.16   0
   6  -6   2   31.15    2.68   0
   6  -4   3   23.90    2.62   0
   6  -1   3   50.99    2.91   0
   7  -5  -4   24.39    2.03   0
   7  -1  -3   26.77    2.26   0
   3  -9   5  355.26    4.53   0
   3  -4   8   71.82    2.12   0
   3  -2   8    0.14    0.89   0
   4 -13  -3   38.68    2.94   0
   4  -6   7  202.82    4.02   0
   4  -2   8  424.87    4.94   0
   5 -13  -9    1.35    1.59   0
   5 -13  -9    0.39    0.97   0
   5 -13  -8    5.06    2.03   0
   5 -12  -3  112.72    3.32   0
   5  -9   3    6.40    2.39   0
   5  -5   6    9.86    2.49   0
   5   0   6  251.19    4.25   0
   6 -11  -7    9.99    1.82   0
   6 -10  -3   84.73    2.78   0
   6  -9  -1    5.27    2.10   0
   6  -5   3   10.04    2.42   0
   7  -5  -3    5.66    1.72   0
   7  -2  -2    7.92    2.11   0
   2 -11   1  348.46    3.98   0
   2  -8   5  309.49    3.52   0
   2  -7   6  449.68    4.04   0
   2  -5   7  436.01    3.78   0
   3 -13  -2   64.84    2.84   0
   3 -10   4   75.34    2.70   0
   3  -8   6   23.12    1.66   0
   3  -7   7   21.12    1.85   0
   3   0   8  112.36    2.14   0
   4  -9   5    3.05    2.21   0
   4  -8   6    0.67    2.07   0
   4  -4   8   48.98    2.53   0
   5 -13  -7    4.95    2.02   0
   5 -10   2    4.19    2.26   0
   5   1   6   -0.31    2.38   0
   6  -8   1  139.26    3.63   0
   6  -6   3   61.95    2.94   0
   6  -4   4    2.12    2.19   0
   6  -2   4   11.74    2.49   0
   6  -1   4    0.87    2.58   0
   7  -4  -2    0.20    1.83   0
   2 -10   3   59.25    2.11   0
   4 -13  -2   49.21    2.81   0
   4 -10   4   72.95    3.03   0
   5 -13  -6    0.56    1.62   0
   5 -13  -6    0.59    1.05   0
   5 -12  -2   49.56    2.60   0
   5  -4   7  222.11    4.45   0
   5  -3   7    2.34    2.22   0
   5  -2   7   14.90    2.34   0
   5  -1   7    2.43    2.20   0
   6 -11  -5    3.96    1.78   0
   6 -10  -2    7.48    1.97   0
   6  -9   0    3.13    2.09   0
   6  -5   4    2.40    2.23   0
   7  -5  -2    0.70    1.78   0
   7  -2  -1    0.17    2.00   0
   2 -11   2  265.71    3.65   0
   2  -6   7  150.66    2.47   0
   3 -13  -1   16.04    2.32   0
   3  -9   6 1107.46    7.55   0
   3   1   8  114.55    2.15   0
   4  -6   8    8.48    2.11   0
   5 -13  -5   17.77    2.11   0
   5 -12  -1   16.01    2.27   0
   5 -11   1    2.50    2.11   0
   5  -9   4   74.12    3.13   0
   5  -7   6   14.40    2.41   0
   6 -11  -4    8.34    1.83   0
   6 -10  -1   57.97    2.46   0
   6  -8   2    5.26    2.09   0
   6  -7   3   -0.52    2.11   0
   6   0   4    1.57    2.29   0
   2  -9   5   21.65    1.62   0
   2  -8   6  183.06    2.82   0
   2  -4   8  483.61    3.85   0
   3 -12   2    3.15    2.03   0
   3 -10   5    7.81    2.01   0
   3  -8   7   -1.38    1.64   0
   3  -4   9   -1.08    1.31   0
   3  -2   9   30.83    1.59   0
   4 -13  -1  109.47    3.28   0
   4  -9   6  100.80    3.26   0
   4  -8   7   25.43    2.39   0
   4  -4   9  217.27    3.87   0
   4  -2   9   10.54    1.99   0
   5 -13  -4   22.28    2.17   0
   6 -11  -3    5.01    1.79   0
   6  -6   4   35.29    2.52   0
   6  -4   5   22.76    2.55   0
   6  -3   5    7.61    2.33   0
   6  -2   5   -0.54    2.21   0
   6  -1   5   28.87    2.79   0
   7  -5  -1    1.88    1.35   0
   7  -5  -1    0.76    0.95   0
   2 -10   4    1.03    1.55   0
   2  -7   7  121.43    2.36   0
   2  -5   8  684.58    4.68   0
   3 -11   4  584.71    5.83   0
   3  -5   9   85.32    2.33   0
   4 -13   0  115.11    3.22   0
   4 -12   2   65.12    2.93   0
   4 -11   4    8.77    2.31   0
   4  -7   8  473.58    5.68   0
   4  -1   9 1113.99    7.27   0
   5 -13  -3    6.78    1.98   0
   5 -11   2    0.14    2.01   0
   5 -10   4   38.89    2.62   0
   5  -9   5    4.69    2.29   0
   5  -4   8    3.71    2.28   0
   5  -3   8   -0.78    2.22   0
   5  -1   8    1.71    2.42   0
   5   1   7   -0.48    1.98   0
   6 -11  -2   36.43    2.27   0
   6 -10   0   60.95    2.58   0
   6  -8   3   50.86    2.63   0
   6  -7   4   24.16    2.37   0
   7  -6  -1    0.80    1.56   0
   2 -12   1  102.44    2.55   0
   2 -11   3  302.40    3.73   0
   3 -10   6  106.93    2.90   0
   3  -9   7   45.93    2.30   0
   4 -14  -3    1.66    2.40   0
   4  -9   7   -2.83    2.02   0
   4  -6   9  260.70    4.31   0
   5 -13  -2   -0.81    2.10   0
   5  -7   7    2.49    2.18   0
   6  -6   5    3.33    2.15   0
   6  -3   6    1.86    2.47   0
   7  -3   1   16.24    2.09   0
   2  -9   6   84.69    2.21   0
   2  -8   7  561.72    4.62   0
   2  -6   8   58.70    1.78   0
   3 -13   1   20.36    2.31   0
   3 -12   3    4.10    2.03   0
   3 -11   5  263.07    4.11   0
   3  -8   8   21.37    1.89   0
   3  -3  10   34.10    1.68   0
   4 -12   3    6.52    2.27   0
   4 -11   5    0.01    2.08   0
   4  -8   8   37.41    2.54   0
   5 -12   1   16.05    2.15   0
   5 -11   3   13.87    2.18   0
   5  -9   6    1.89    2.19   0
   5  -8   7  214.32    4.29   0
   6 -11  -1    1.69    1.73   0
   6  -8   4   29.15    2.35   0
   6  -7   5   13.75    2.46   0
   6  -5   6   -0.70    2.06   0
   6  -2   6   13.85    2.36   0
   6  -1   6    9.89    2.52   0
   7  -4   1    9.31    1.54   0
   7  -2   1   -0.82    1.43   0
   7  -2   1    0.01    0.96   0
   2 -10   5   17.37    1.66   0
   2  -7   8  784.44    5.30   0
   2  -4   9  426.80    3.67   0
   3  -7   9   41.60    2.08   0
   3  -5  10    7.20    1.50   0
   3  -4  10    5.82    1.40   0
   3  -2  10    4.57    1.29   0
   4 -14  -2   86.23    2.87   0
   4  -7   9   26.27    2.30   0
   4  -4  10   45.17    2.41   0
   4   1   9 1108.73    6.64   0
   5 -10   5  181.02    3.89   0
   5  -7   8    5.69    2.14   0
   6 -11   0   43.71    2.33   0
   6 -10   2    9.18    2.13   0
   6  -6   6    9.24    2.07   0
   2 -12   2  253.82    3.49   0
   2 -11   4  112.30    2.58   0
   3 -12   4    3.82    1.99   0
   3 -10   7  161.53    3.39   0
   3  -6  10    6.55    1.54   0
   4 -14  -1    9.02    2.14   0
   4 -13   2   56.02    2.78   0
   4 -12   4   13.38    2.26   0
   4  -1  10  125.99    2.87   0
   5 -11   4   43.36    2.53   0
   5  -5   9   11.85    2.27   0
   6  -8   5    1.56    1.86   0
   6  -3   7    0.36    2.18   0
   7  -6   1    0.25    1.56   0
   7  -4   2    1.93    1.74   0
   7  -3   2   44.55    2.17   0
   2  -9   7   22.34    1.65   0
   2  -6   9  399.58    3.81   0
   3 -11   6   16.80    2.16   0
   3  -8   9   24.36    2.00   0
   3   0  10    4.20    1.19   0
   4 -11   6   -0.29    2.07   0
   5 -14  -4   56.21    2.22   0
   5 -12   3  112.01    3.06   0
   5  -8   8    2.12    2.08   0
   5  -6   9   10.44    2.24   0
   6 -10   3   84.16    2.63   0
   6  -9   4    9.16    1.95   0
   6  -5   7   35.27    2.49   0
   1  -9   4  395.91    3.31   0
   2 -12   3    6.24    1.71   0
   3 -13   3  319.66    4.58   0
   3 -12   5   20.46    2.15   0
   3  -7  10   38.76    2.08   0
   3  -4  11    2.30    1.42   0
   3  -3  11    1.82    1.35   0
   4 -14   0   25.59    2.32   0
   4 -13   3   39.64    2.51   0
   4 -12   5    3.18    2.08   0
   4  -7  10  179.21    3.73   0
   4  -5  11   22.64    2.16   0
   4  -4  11  309.73    4.36   0
   5 -14  -3    4.92    1.75   0
   5 -11   5    1.19    1.96   0
   5  -7   9   10.22    2.28   0
   6  -1   7   15.27    2.26   0
   7  -4   3    1.83    1.66   0
   7  -3   3   17.09    1.83   0
   1 -10   3  451.65    3.55   0
   2 -11   5   18.17    1.79   0
   2  -7   9    0.47    1.26   0
   2  -4  10    1.06    1.09   0
   2  -3  10 1015.17    5.42   0
   3 -11   7  464.48    5.20   0
   3 -10   8   70.94    2.62   0
   3  -9   9   55.22    2.43   0
   3  -5  11   17.12    1.68   0
   3  -2  11   -0.23    1.26   0
   4 -11   7   12.18    2.23   0
   4 -10   8   16.30    2.24   0
   4  -9   9   13.82    2.23   0
   4  -1  11  229.91    3.53   0
   5 -14  -2    6.30    1.70   0
   5 -12   4   79.38    2.76   0
   5 -10   7  150.66    3.58   0
   5  -6  10    9.98    2.23   0
   5  -5  10   35.15    2.52   0
   5  -1  10    0.18    2.25   0
   6 -10   4   11.69    1.86   0
   6  -8   6    1.83    1.85   0
   6  -7   7   21.64    2.13   0
   6  -3   8   12.46    2.26   0
   7  -5   3    7.26    1.73   0
   2  -9   8  380.73    4.05   0
   2  -2  10  844.00    4.79   0
   3 -14   1   39.98    2.43   0
   3  -8  10    1.18    1.66   0
   3  -6  11    2.20    1.54   0
   3   1  10    0.11    1.14   0
   4 -13   4   -0.09    2.05   0
   4 -12   6   -1.97    2.02   0
   5 -11   6    0.80    1.97   0
   5  -8   9    2.33    2.05   0
   6  -5   8   25.69    2.33   0
   1  -9   5  152.52    2.25   0
   1  -8   6  202.27    2.50   0
   2 -12   4   52.65    2.19   0
   2 -11   6    0.29    1.60   0
   2  -8   9  253.09    3.35   0
   4 -14   2   86.28    2.83   0
   4 -10   9   95.54    3.15   0
   4  -7  11    0.11    1.86   0
   4  -4  12  213.22    3.74   0
   4  -3  12   12.68    1.89   0
   5 -12   5   24.16    2.14   0
   5  -7  10   18.20    2.23   0
   5   0  10   18.76    2.11   0
   6 -11   3    6.32    1.69   0
   6 -10   5    3.47    1.97   0
   6  -8   7    4.52    1.83   0
   6  -6   8   14.05    2.08   0
   6  -1   8    6.54    2.08   0
   7  -5   4   23.12    1.78   0
   7  -4   4   38.68    1.76   0
   7  -3   4    0.64    1.32   0
   7  -3   4    0.15    0.88   0
   1 -10   4  259.62    2.84   0
   2  -7  10 1364.80    7.16   0
   3 -14   2   12.66    2.11   0
   3 -11   8  451.48    5.17   0
   3 -10   9    5.49    1.85   0
   3  -5  12  244.48    3.57   0
   3  -4  12    4.93    1.51   0
   4 -11   8   43.27    2.57   0
   4  -6  12    0.53    1.80   0
   4  -5  12  121.33    3.13   0
   5 -11   7    9.35    2.00   0
   5 -10   8    2.06    1.92   0
   5  -8  10    1.21    1.99   0
   5  -6  11   22.52    2.36   0
   5  -5  11   -0.89    1.99   0
   6  -7   8    5.61    1.98   0
   6  -5   9   52.40    2.77   0
   6  -3   9    0.16    2.05   0
   2 -12   5   17.29    1.86   0
   2 -10   8   70.20    2.28   0
   2  -9   9   62.16    2.16   0
   2  -4  11  139.77    2.37   0
   2  -3  11  700.31    4.64   0
   3  -8  11    2.27    1.71   0
   3  -6  12    7.88    1.69   0
   3  -2  12   17.68    1.51   0
   4 -14   3    2.46    2.04   0
   4 -12   7   10.82    2.15   0
   4  -1  12   -0.15    1.68   0
   5 -14   1   42.25    2.20   0
   5 -13   4   22.32    2.20   0
   5 -12   6   82.16    2.93   0
   5  -1  11   14.23    2.15   0
   6 -11   4    8.59    1.62   0
   6  -9   7   25.45    2.01   0
   6  -6   9   80.51    2.77   0
   6  -2   9    1.87    2.06   0
   7  -4   5   15.24    1.64   0
   1  -9   6  123.19    2.13   0
   2  -8  10   20.23    1.66   0
   2  -6  11  181.43    2.83   0
   2  -2  11   20.86    1.29   0
   3 -14   3   25.12    2.22   0
   3 -10  10    7.91    1.84   0
   4  -7  12  158.00    3.57   0
   4   1  11  208.83    3.19   0
   5  -7  11    2.26    1.53   0
   5  -4  12    3.28    2.08   0
   6  -8   8    6.51    1.83   0
   6  -7   9    0.43    2.08   0
   1 -10   5  766.53    4.74   0
   1  -7   8  135.14    2.10   0
   2 -12   6   14.43    2.07   0
   2  -7  11   83.67    2.21   0
   3 -11   9   20.29    2.18   0
   3  -9  11    2.96    1.86   0
   3  -4  13   -0.52    1.49   0
   4 -14   4    1.83    1.97   0
   4 -12   8   45.60    2.60   0
   4  -4  13   14.90    1.91   0
   4  -3  13   89.39    2.72   0
   4   0  12   95.39    2.56   0
   5 -14   2    4.76    1.73   0
   5 -13   5   18.35    2.12   0
   5 -11   8    4.50    1.83   0
   5  -8  11   18.84    2.24   0
   5  -6  12    8.81    2.18   0
   5  -5  12   25.32    2.33   0
   5  -3  12    0.18    2.04   0
   6 -11   5    3.16    1.52   0
   6  -3  10   25.56    2.52   0
   2 -13   4   18.19    1.90   0
   2 -10   9  101.27    2.60   0
   2  -9  10  730.88    5.68   0
   3 -14   4    4.76    1.99   0
   3  -8  12    3.37    1.75   0
   3  -6  13   22.62    1.97   0
   3  -3  13  656.10    5.30   0
   3  -2  13    4.52    1.43   0
   3   0  12    9.85    1.37   0
   4 -10  11   17.88    2.23   0
   4  -6  13   77.99    2.47   0
   4  -2  13   30.10    2.03   0
   5 -12   7   27.75    2.10   0
   5  -7  12   18.44    2.24   0
   6  -9   8    1.23    1.66   0
   6  -8   9   97.33    2.75   0
   6  -6  10   19.09    2.11   0
   1  -9   7   17.35    1.34   0
   1  -6   9  865.04    4.83   0
   2  -8  11  215.08    3.28   0
   2  -6  12  195.35    2.99   0
   2  -5  12  740.90    5.26   0
   2  -4  12  189.40    2.75   0
   2  -3  12  370.28    3.56   0
   3 -13   7  260.18    4.10   0
   3 -11  10    8.48    2.03   0
   3 -10  11   -0.51    1.85   0
   4 -14   5    1.17    1.99   0
   4 -12   9   74.84    2.84   0
   4 -11  10  114.43    3.24   0
   4  -1  13  123.30    2.85   0
   5 -14   3    6.40    1.68   0
   5 -13   6    0.54    1.91   0
   5 -11   9    2.68    1.86   0
   5 -10  10    6.22    1.87   0
   5  -9  11    2.84    1.96   0
   5  -1  12   -0.21    1.97   0
   6 -11   6    0.44    1.51   0
   6  -7  10   -0.98    1.80   0
   1 -10   6   89.79    2.02   0
   2 -13   5   23.34    1.92   0
   2  -2  12  224.36    2.76   0
   3 -14   5   10.11    2.06   0
   3  -9  12  166.63    3.41   0
   4  -4  14    2.58    1.88   0
   4  -3  14   54.23    2.42   0
   4   1  12   -0.43    1.63   0
   5 -14   4   59.48    2.31   0
   5 -12   8   38.52    2.24   0
   5  -8  12    3.03    1.98   0
   5  -4  13   21.24    2.35   0
   5  -3  13   43.43    2.55   0
   6  -9   9    2.78    1.70   0
   6  -3  11   46.71    2.68   0
   1 -11   5  235.68    3.05   0
   1  -7   9   -0.76    1.06   0
   2 -10  10    0.38    1.64   0
   2  -7  12  762.53    5.70   0
   3  -8  13    8.46    1.86   0
   3  -4  14   21.54    1.86   0
   3   1  12  120.44    2.26   0
   4 -15   3    7.14    1.95   0
   4 -14   6    1.03    1.94   0
   4 -10  12    5.57    2.10   0
   4  -6  14   86.64    2.86   0
   4  -2  14    4.72    1.84   0
   5 -11  10    9.07    1.89   0
   5 -10  11    2.64    1.84   0
   5  -7  13   20.70    2.28   0
   5  -2  13    7.25    2.11   0
   6 -11   7    9.51    1.57   0
   6  -8  10    1.25    1.76   0
   6  -6  11   68.98    2.60   0
   1  -9   8  365.46    3.55   0
   2 -13   6    0.92    1.77   0
   2 -12   8  359.50    4.46   0
   2  -8  12   33.41    1.93   0
   2  -5  13  194.23    3.00   0
   2  -4  13   71.70    2.01   0
   2  -1  12    0.50    1.05   0
   3 -14   6   16.56    2.10   0
   3 -11  11   72.06    2.76   0
   3 -10  12   42.83    2.38   0
   3  -9  13    1.31    1.82   0
   3  -7  14  385.70    4.78   0
   3  -2  14   34.61    1.86   0
   4 -12  10   71.45    2.83   0
   4  -7  14   80.59    2.88   0
   5 -14   5    0.25    1.76   0
   5 -12   9   13.88    1.94   0
   5  -9  12   22.05    2.12   0
   6  -7  11    9.71    1.91   0
   1 -10   7  510.71    4.17   0
   1  -8   9   95.00    2.04   0
   3 -12  10   45.48    2.45   0
   4 -15   4    2.10    1.86   0
   4 -14   7    3.80    2.01   0
   4  -8  14    3.86    2.02   0
   4  -5  15    0.77    1.90   0
   4  -4  15   21.82    2.15   0
   4  -1  14    0.12    1.63   0
   5  -8  13  104.27    3.08   0
   5  -6  14   17.33    2.20   0
   5  -5  14   22.00    2.33   0
   6 -10   9   71.21    2.26   0
   6  -9  10    4.54    1.65   0
   6  -8  11   97.01    2.83   0
   6  -5  12    9.10    1.94   0
   1 -11   6  358.49    3.59   0
   1  -7  10   91.04    1.98   0
   2 -13   7   25.95    2.36   0
   2 -10  11  140.01    3.02   0
   2  -9  12  349.11    4.30   0
   2  -7  13    1.28    1.48   0
   2  -2  13    4.69    1.20   0
   2   0  12   40.56    1.45   0
   3 -14   7    0.85    2.05   0
   3 -13   9    1.41    2.03   0
   3  -8  14   32.17    2.24   0
   3  -4  15    3.14    1.69   0
   3  -1  14   11.65    1.53   0
   4 -15   5    0.10    2.04   0
   4 -12  11   95.77    3.05   0
   5 -13   8    5.79    1.71   0
   5 -11  11    1.34    1.75   0
   5  -9  13    2.20    1.85   0
   5  -2  14  120.83    3.17   0
   6  -6  12    0.84    1.82   0
   6  -3  12   -0.90    1.91   0
   2 -12   9  301.97    4.13   0
   2  -8  13    8.12    1.71   0
   3 -12  11   10.78    2.09   0
   3 -10  13   -0.50    1.93   0
   3  -9  14  499.36    5.60   0
   3  -7  15  136.22    3.25   0
   3  -6  15    3.66    1.33   0
   3  -3  15  270.41    3.76   0
   3   1  13  815.32    5.21   0
   4 -14   8   40.78    2.38   0
   4 -13  10   47.31    2.75   0
   4  -7  15    7.45    2.00   0
   4  -2  15   35.92    2.23   0
   4   0  14   51.26    2.27   0
   5 -12  10   13.24    1.81   0
   5  -8  14   19.46    2.48   0
   6 -10  10    5.67    1.53   0
   6  -9  11    0.97    1.53   0
   6  -7  12    8.78    1.86   0
   1 -11   7   20.33    1.87   0
   1  -6  11    3.55    1.14   0
   2 -10  12   18.51    1.98   0
   2  -4  14    7.80    1.10   0
   2  -3  14  177.31    2.82   0
   3 -14   8   19.86    2.26   0
   3  -2  15   34.66    1.98   0
   4 -15   6    1.61    2.03   0
   4 -11  13   34.59    2.41   0
   4  -8  15    1.44    1.93   0
   5 -14   7    1.24    1.71   0
   5 -13   9    1.76    1.67   0
   5 -11  12    4.04    2.02   0
   5  -5  15    2.44    2.12   0
   5  -1  14    5.95    2.03   0
   6  -8  12    7.85    1.71   0
   6  -5  13   11.26    2.17   0
   6  -4  13   17.37    2.29   0
   1  -7  11    8.03    1.28   0
   2 -13   8   50.05    2.40   0
   2 -12  10   98.69    3.06   0
   2 -11  11  171.05    3.36   0
   2  -9  13   29.22    2.11   0
   2  -7  14  511.75    5.07   0
   2  -2  14   56.76    1.85   0
   3  -8  15  120.84    3.18   0
   3  -5  16  394.87    4.84   0
   4 -14   9   30.01    2.49   0
   4 -12  12   76.22    2.85   0
   4 -10  14    9.53    2.09   0
   5 -12  11   27.21    2.05   0
   5  -9  14   15.64    2.09   0
   5  -7  15   -0.06    1.98   0
   5  -3  15   26.54    2.34   0
   6  -3  13   -1.96    1.91   0
   1 -10   9  289.14    3.51   0
   1  -8  11  107.72    2.30   0
   2  -8  14   90.14    2.73   0
   3 -14   9   68.49    2.90   0
   3 -12  12    1.15    1.99   0
   3  -9  15   54.40    2.63   0
   3  -7  16  375.05    4.93   0
   3  -6  16   37.28    2.30   0
   4 -15   7   19.46    2.23   0
   4 -13  11  206.55    3.87   0
   4  -7  16   -1.28    1.82   0
   4  -2  16   -0.59    1.85   0
   5 -14   8    8.62    1.77   0
   5 -13  10    0.10    1.79   0
   5  -2  15   12.12    2.13   0
   6  -9  12   27.47    1.89   0
   6  -7  13    1.87    1.75   0
   1 -11   8   52.85    2.03   0
   1  -6  12   29.05    1.53   0
   2 -11  12  477.95    5.26   0
   2 -10  13   93.90    2.88   0
   2  -5  15  108.24    2.63   0
   2  -4  15   72.05    2.24   0
   2  -1  14   40.49    1.66   0
   3   1  14   11.44    1.54   0
   4 -12  13   -0.89    1.93   0
   4 -10  15   18.90    2.22   0
   4  -8  16    0.44    2.04   0
   5 -11  13    0.10    1.75   0
   5  -5  16   14.06    2.23   0
   5  -4  16  108.11    3.16   0
   5  -1  15   13.48    2.30   0
   1 -10  10   28.85    1.86   0
   1  -9  11    3.11    1.40   0
   1  -7  12  163.78    2.72   0
   2 -12  11    9.37    2.04   0
   2  -9  14  215.50    3.80   0
   2  -7  15    9.00    1.87   0
   2  -3  15   24.36    1.39   0
   3 -12  13    7.98    2.09   0
   3 -11  14  119.57    3.34   0
   3 -10  15    0.30    2.02   0
   4 -15   8    2.19    2.05   0
   4 -14  10   65.39    2.64   0
   4 -13  12    0.37    1.94   0
   4  -6  17    1.45    2.06   0
   4  -5  17    1.19    1.96   0
   4  -4  17    2.77    1.96   0
   4  -1  16   14.38    2.08   0
   5 -12  12   46.84    2.18   0
   5  -9  15    0.36    1.89   0
   5  -7  16   23.31    2.26   0
   5  -3  16    2.27    2.08   0
   6  -5  14    8.45    1.93   0
   1 -12   7  180.90    3.01   0
   1 -11   9   24.75    1.85   0
   1  -8  12   -0.16    1.37   0
   2 -13  10   61.21    2.86   0
   2  -8  15    8.88    1.94   0
   2  -2  15   52.05    1.93   0
   3 -14  10   46.68    2.60   0
   3  -9  16  405.85    5.37   0
   3  -7  17    3.69    1.92   0
   3  -6  17   -0.22    1.94   0
   3  -5  17    6.30    1.48   0
   3  -4  17  116.72    3.09   0
   3  -3  17  603.48    5.78   0
   4  -7  17    3.69    2.02   0
   5 -13  11    9.39    1.74   0
   5  -8  16    3.72    1.89   0
   5  -2  16  116.73    3.16   0
   6  -7  14    1.82    1.71   0
   6  -3  14    0.31    1.59   0
   6  -3  14   -0.30    1.03   0
   1  -5  13   11.14    1.33   0
   1  -4  13  540.13    4.32   0
   2 -12  12    0.76    2.01   0
   2 -11  13  196.45    3.80   0
   2 -10  14   20.26    2.17   0
   2  -6  16  284.36    4.19   0
   2  -5  16   20.11    1.89   0
   2  -4  16    0.98    1.64   0
   2   1  13  658.61    4.38   0
   3 -15   8   17.94    2.20   0
   4 -14  11   20.07    2.19   0
   4 -12  14   12.21    2.14   0
   4 -11  15   -0.18    1.99   0
   4 -10  16    3.35    2.03   0
   4  -8  17    7.28    2.13   0
   4  -2  17   11.56    2.10   0
   4   0  16   49.28    2.45   0
   5 -12  13    0.76    1.60   0
   5 -11  14   14.52    1.94   0
   5 -10  15   37.52    2.28   0
   1 -11  10    1.44    1.94   0
   1 -10  11    2.79    1.65   0
   1  -9  12    2.05    1.56   0
   1  -7  13    0.92    1.38   0
   1  -3  13  250.13    2.97   0
   2  -9  15    0.07    1.91   0
   2  -7  16  144.87    3.30   0
   2  -3  16  106.19    2.60   0
   2  -1  15  140.23    2.61   0
   3 -14  11   12.98    2.27   0
   3 -12  14    9.23    2.18   0
   3 -11  15  138.87    3.50   0
   3   0  16   43.77    2.18   0
   3   1  15  536.06    4.67   0
   4 -15   9   23.05    2.07   0
   4 -13  13    7.77    2.08   0
   4  -9  17    1.24    2.09   0
   4  -6  18    8.19    2.18   0
   4  -5  18   16.58    2.29   0
   4  -4  18    7.99    2.15   0
   5 -13  12    2.88    1.75   0
   5  -9  16    6.27    1.89   0
   5  -7  17   -0.51    1.96   0
   5  -6  17   46.96    2.57   0
   5  -4  17  100.62    3.19   0
   5  -3  17    4.29    2.42   0
   5  -1  16    0.88    2.14   0
   6  -6  15   -0.70    1.68   0
   6  -5  15    4.13    1.84   0
   6  -4  15   11.36    2.14   0
   1  -8  13  145.01    2.89   0
   1  -2  13   23.29    1.40   0
   2 -14   9    4.29    2.18   0
   2  -8  16    3.81    1.94   0
   2  -2  16    0.58    1.51   0
   3  -9  17   11.61    2.28   0
   3  -6  18    0.88    2.02   0
   3  -5  18  239.03    4.22   0
   3  -4  18   63.94    2.71   0
   3  -1  17  621.07    5.67   0
   4  -7  18   69.33    2.93   0
   4  -3  18   12.26    2.25   0
   1 -12   9    0.62    1.79   0
   1  -7  14  427.27    4.55   0
   1  -6  14   60.30    2.10   0
   2 -10  15   -0.75    1.98   0
   2  -9  16   -0.32    1.99   0
   2  -6  17   21.58    2.20   0
   2  -5  17   83.97    2.72   0
   2  -4  17   -1.37    1.71   0
   2   1  14   38.39    1.67   0
   3 -14  12    3.56    2.39   0
   3 -12  15    3.72    2.47   0
   3 -11  16  146.40    3.66   0
   3  -3  18  381.63    4.93   0
   4 -15  10   20.14    2.09   0
   4 -12  15    1.25    1.95   0
   4 -11  16   -0.33    1.97   0
   4 -10  17    1.84    1.98   0
   4  -8  18    7.77    2.15   0
   4  -2  18   87.58    3.03   0
   5 -10  16   24.42    2.13   0
   5  -2  17   35.62    2.47   0
   1 -11  11   18.30    2.04   0
   1  -9  13   14.68    1.84   0
   1  -3  14  326.44    3.55   0
   2 -14  10   70.31    2.83   0
   2 -13  12   32.28    2.54   0
   2  -7  17   -0.64    2.00   0
   2  -3  17  115.09    2.91   0
   2  -1  16    0.78    1.50   0
   2   2  13    3.12    1.38   0
   3 -15  10   70.80    2.82   0
   3 -13  14   34.79    2.57   0
   3 -10  17    9.95    2.18   0
   3   1  16  116.85    2.96   0
   4  -5  19   47.64    2.69   0
   4  -4  19   98.06    3.47   0
   5  -9  17    9.30    2.01   0
   5  -6  18    4.71    2.07   0
   6  -5  16    2.58    1.97   0
   1 -12  10    1.36    1.91   0
   1  -1  13  781.84    4.85   0
   2 -11  15    1.71    2.19   0
   2 -10  16    0.10    2.14   0
   2  -8  17   25.56    2.40   0
   3  -9  18   80.57    3.15   0
   3  -7  19   18.41    2.35   0
   3  -5  19   82.10    3.08   0
   3  -4  19   -0.96    2.08   0
   4 -12  16    2.88    2.31   0
   4 -11  17    4.61    2.03   0
   4  -7  19    5.05    2.17   0
   4  -3  19  208.24    4.12   0
   5  -7  18    8.32    2.02   0
   5  -3  18    8.06    2.31   0
   6  -6  16    7.93    1.52   0
   6  -4  16    2.96    1.97   0
   1  -9  14  120.66    3.11   0
   1  -7  15    1.69    1.73   0
   2 -14  11    6.74    2.33   0
   2 -13  13  122.41    3.68   0
   2  -6  18   11.58    2.27   0
   2  -5  18  210.07    3.99   0
   2  -4  18    1.48    1.90   0
   3 -15  11   70.23    2.86   0
   3 -14  13   -0.18    2.19   0
   3 -12  16    4.88    2.23   0
   3  -8  19    1.56    2.10   0
   3  -3  19  118.98    3.34   0
   3  -1  18   13.52    2.11   0
   4 -13  15    1.12    2.00   0
   4 -10  18    3.50    2.11   0
   5 -11  16    4.27    1.70   0
   5 -10  17   75.86    2.65   0
   5  -8  18    6.08    1.96   0
   5  -2  18  151.21    3.77   0
   0  -8   9 1960.97    7.86   0
   1 -12  11   23.36    2.31   0
   1  -8  15  732.97    6.44   0
   1  -3  15  602.88    5.02   0
   2   0  16   37.41    1.97   0
   3 -10  18   10.39    2.30   0
   4  -9  19    1.93    2.09   0
   4  -5  20  206.51    4.20   0
   4  -2  19   -1.29    2.30   0
   5  -5  19    2.88    2.19   0
   1 -11  13  130.43    3.58   0
   1 -10  14  447.56    5.33   0
   1  -6  16   20.26    2.00   0
   1  -2  15  328.45    3.77   0
   1  -1  14  158.17    2.58   0
   2 -14  12   24.89    2.81   0
   2 -12  15    7.26    2.44   0
   2  -8  18    1.68    1.59   0
   3 -15  12    1.78    2.44   0
   3 -14  14    5.42    2.27   0
   3  -9  19   27.59    2.62   0
   3  -6  20   16.30    2.51   0
   3  -5  20    4.11    2.31   0
   4 -15  12    7.38    1.66   0
   4 -12  17    2.54    1.96   0
   4 -11  18   39.99    2.50   0
   4  -6  20   18.61    2.40   0
   5  -7  19    1.71    2.06   0
   0  -8  10    8.65    1.45   0
   1 -13  10    9.51    2.47   0
   1 -12  12   51.54    2.94   0
   1  -9  15   85.14    2.93   0
   1  -7  16  562.64    5.80   0
   1  -4  16  514.95    5.09   0
   2 -13  14    8.86    2.42   0
   2  -9  18  128.05    3.69   0
   2  -5  19  108.95    3.38   0
   2  -4  19    3.56    2.13   0
   2  -2  18  223.15    3.85   0
   3 -12  17    0.47    2.22   0
   3 -10  19    1.96    2.22   0
   3  -8  20    2.27    2.28   0
   3  -7  20   70.70    2.69   0
   4 -13  16   -0.26    2.02   0
   4  -8  20    4.53    2.27   0
   5 -10  18    0.61    1.70   0
   5  -8  19   29.88    2.33   0
   5  -3  19    8.66    2.36   0
   0  -6  11 2167.99    8.51   0
   1  -8  16   -0.76    2.03   0
   1  -3  16   48.69    2.12   0
   2 -12  16   -2.29    2.40   0
   2  -8  19   28.10    2.69   0
   2  -3  19  321.46    4.81   0
   2   1  16    0.28    1.59   0
   4  -2  20   48.46    2.99   0
   1 -13  11    0.64    2.60   0
   1 -11  14  242.18    4.41   0
   1 -10  15  229.52    4.28   0
   1  -7  17    4.12    2.12   0
   1  -6  17  834.02    7.13   0
   1  -2  16 1126.21    7.17   0
   1  -1  15  402.50    4.11   0
   1   0  14  925.98    5.66   0
   2 -14  13   23.11    2.67   0
   2 -13  15    3.22    2.47   0
   2 -10  18    1.95    2.34   0
   2   2  15   56.25    2.27   0
   3 -14  15    9.84    2.39   0
   3  -9  20   25.44    2.65   0
   3  -6  21   23.25    2.76   0
   3  -5  21   -0.65    2.40   0
   3  -2  20   45.34    2.82   0
   4 -12  18   25.29    2.43   0
   4  -7  21    3.48    2.29   0
   4  -5  21   32.24    2.69   0
   5  -7  20    0.32    2.02   0
   5  -5  20    1.11    2.23   0
   5  -4  20    1.04    2.56   0
   0 -10   9 1068.61    6.59   0
   0  -6  12  133.78    2.63   0
   0  -4  12  611.32    4.70   0
   1  -8  17  657.21    6.88   0
   2  -9  19    1.12    2.38   0
   2  -4  20   60.54    3.01   0
   3 -13  17  159.48    3.92   0
   3 -12  18    2.01    2.23   0
   3 -11  19   35.74    2.69   0
   3 -10  20    0.17    2.27   0
   3  -8  21    7.69    2.43   0
   3  -7  21   -1.88    2.33   0
   3  -4  21    1.70    2.32   0
   3   1  18   16.26    2.27   0
   4 -13  17    5.39    2.05   0
   5  -8  20    3.35    1.98   0
   5  -3  20   12.39    2.73   0
   1 -10  16  168.12    4.07   0
   1  -3  17  147.43    3.22   0
   2 -14  14   11.20    2.62   0
   2 -12  17   30.38    2.88   0
   2 -10  19    0.45    2.62   0
   2  -8  20    2.74    2.54   0
   2  -3  20  327.59    5.20   0
   2   0  18    1.09    1.93   0
   3 -15  14    7.97    2.37   0
   3  -3  21    3.39    2.41   0
   3  -1  20   27.80    2.63   0
   4  -9  21   19.92    2.40   0
   3  -5   8  504.60    4.33   0
   3   2   8    0.86    1.18   0
   4   2   8  418.75    4.90   0
   5   1   7    0.35    2.15   0
   5   3   6   15.47    2.37   0
   5   4   5  309.63    4.78   0
   5   7   1   21.51    2.37   0
   6  -7   2    2.71    2.46   0
   6  -5   4    2.69    2.29   0
   6  -3   5    6.76    2.27   0
   6  -2   5    1.79    2.28   0
   6  -1   5   29.71    2.73   0
   6   2   4   10.50    2.39   0
   6   3   3    7.45    2.36   0
   6   4   2   43.08    2.76   0
   7  -5  -2    0.62    1.87   0
   7   1  -1    7.14    1.95   0
   7   2  -2    6.11    1.93   0
   3   1   8  108.86    2.31   0
   3   3   7 1078.20    6.20   0
   4  -6   7  201.59    3.71   0
   4  -4   8   45.63    2.46   0
   4   1   8   46.47    2.42   0
   4   3   7  280.25    4.23   0
   4   6   4  411.75    4.85   0
   5  -8   4   13.64    2.38   0
   5  -7   5   14.43    2.40   0
   5  -4   7  223.74    4.37   0
   5  -3   7   -0.10    2.24   0
   6  -4   4    5.46    2.33   0
   6   1   4    2.72    2.33   0
   6   5   0   -0.02    2.29   0
   7  -3  -1   17.65    2.06   0
   3  -6   7   13.23    1.51   0
   3  -4   8   74.40    2.07   0
   3   4   6    4.72    1.34   0
   3   5   5  482.77    4.19   0
   4  -8   5   11.72    2.41   0
   4  -7   6   -0.09    2.02   0
   4   4   6   27.50    2.16   0
   4   7   2   55.88    2.56   0
   5  -5   6    6.98    2.38   0
   5  -2   7   18.55    2.55   0
   5  -1   7    2.30    2.24   0
   6  -8   0    8.40    2.25   0
   6  -5   3   10.19    2.33   0
   6  -3   4   42.02    2.84   0
   6  -2   4   13.30    2.41   0
   6   0   4    5.06    2.42   0
   6   2   3    1.88    2.33   0
   6   3   2    2.53    2.26   0
   7  -5  -3    6.75    1.88   0
   7  -4  -2    0.95    1.81   0
   7  -2  -1    1.58    1.77   0
   7  -1  -1    4.53    1.88   0
   7   1  -2    3.15    1.84   0
   7   2  -3   31.37    2.17   0
   7   3  -5   14.75    1.98   0
   3  -7   6 1374.00    6.88   0
   3  -3   8  244.99    3.18   0
   3  -2   8    0.55    1.27   0
   3  -1   8  111.99    2.36   0
   4  -5   7  331.50    4.57   0
   4  -2   8  422.10    5.06   0
   4  -1   8   45.63    2.06   0
   4   2   7   42.80    2.39   0
   5   1   6    2.74    2.34   0
   5   3   5   58.70    2.94   0
   5   4   4   13.58    2.37   0
   5   5   3  145.99    3.62   0
   6  -7   1   -1.12    2.28   0
   6   1   3   50.77    2.96   0
   6   5  -1    1.76    2.31   0
   6   6  -3   54.20    2.86   0
   7  -4  -3    1.27    2.04   0
   7  -3  -2   48.85    2.44   0
   7  -2  -2    8.08    1.96   0
   7  -1  -2    3.23    1.99   0
   7   0  -2   25.64    2.17   0
   7   1  -3   28.14    2.25   0
   7   2  -4   66.62    2.62   0
   7   3  -6    0.49    1.82   0
   3  -5   7  227.89    3.15   0
   4   1   7   96.32    2.97   0
   4   3   6    1.36    1.85   0
   5  -8   3   85.41    3.18   0
   5  -3   6   13.65    2.53   0
   5   6   1   20.17    2.44   0
   6  -4   3   21.88    2.63   0
   6  -3   3    7.24    2.40   0
   6   2   2  147.42    4.00   0
   6   6  -4   33.54    2.85   0
   7  -3  -3   18.47    2.04   0
   7   1  -4    2.51    2.14   0
   7   2  -5   -0.28    1.90   0
   3   3   6  318.77    3.56   0
   4  -4   7   44.81    2.45   0
   4   7   1    9.23    2.12   0
   5  -9   1   -1.09    2.70   0
   5  -5   5   -0.39    2.41   0
   5  -1   6    0.14    2.28   0
   5   3   4   27.40    2.55   0
   5   5   2   68.58    3.03   0
   6  -7   0    1.70    2.39   0
   6  -2   3    0.47    2.47   0
   6   3   1   22.92    2.59   0
   6   5  -2   76.31    3.21   0
   7  -4  -4   59.23    2.51   0
   7  -2  -3   36.93    2.46   0
   7   3  -8    2.00    1.39   0
   3  -4   7  101.99    2.32   0
   3   5   4 1389.26    6.90   0
   4  -7   5    4.39    2.06   0
   4  -3   7  276.72    4.32   0
   4  -1   7  100.29    3.04   0
   4   2   6   10.71    1.97   0
   5  -8   2    4.29    2.79   0
   5   4   3  155.36    3.84   0
   6  -8  -2    3.82    2.35   0
   6  -4   2   45.80    3.05   0
   6   1   2    7.55    2.45   0
   6   2   1  126.55    3.86   0
   6   6  -5    1.95    2.39   0
   7  -4  -5   14.42    1.95   0
   7  -3  -4   -1.33    1.92   0
   7   0  -4   28.86    2.25   0
   7   1  -5   17.47    2.17   0
   7   2  -7    0.13    1.77   0
   3  -7   5    5.26    1.62   0
   3  -3   7 1141.24    6.50   0
   3  -2   7   58.61    1.95   0
   3  -1   7  899.29    5.82   0
   3   2   6   80.30    2.09   0
   4  -5   6   15.51    2.17   0
   4   3   5  224.11    3.76   0
   4   6   2    4.90    2.09   0
   5  -3   5   58.09    3.22   0
   5  -1   5   66.99    3.21   0
   5   2   4  536.27    6.54   0
   6  -7  -1    0.89    2.44   0
   6  -6   0    6.06    2.89   0
   6  -5   1    3.86    2.49   0
   6  -3   2    4.58    2.57   0
   6   0   2  182.62    4.41   0
   6   3   0   14.11    2.61   0
   6   5  -3   11.93    2.55   0
   6   6  -6    7.08    2.42   0
   7  -4  -6    6.55    2.10   0
   7  -1  -5   16.60    2.40   0
   7   1  -6   12.40    2.15   0
   3  -5   6 1703.46    7.95   0
   4  -4   6   26.55    2.30   0
   4   1   6    9.03    1.85   0
   4   4   4   27.49    2.13   0
   4   7   0  661.03    5.98   0
   5  -5   4   42.46    3.01   0
   5  -2   5   59.47    2.69   0
   5   3   3   29.33    2.78   0
   5   4   2   23.01    2.69   0
   5   5   1    1.16    2.36   0
   6   1   1    1.80    2.57   0
   6   2   0  370.09    5.76   0
   6   5  -4   -0.19    2.45   0
   7  -3  -6   -0.36    1.84   0
   7   0  -6   65.40    2.73   0
   7   1  -7   53.05    2.55   0
   3   1   6  382.23    3.92   0
   3   3   5 1171.51    6.53   0
   3   6   2    0.08    1.40   0
   4  -7   4  239.21    4.13   0
   4  -3   6    2.70    2.01   0
   4  -1   6    9.91    2.03   0
   4   2   5    0.60    1.61   0
   5  -8   1   78.07    3.37   0
   5   1   4    3.62    2.44   0
   5   6  -1   21.67    2.65   0
   6  -7  -2   -0.32    2.50   0
   6  -5   0    0.93    2.51   0
   6  -2   1  128.71    4.05   0
   6   3  -1   24.09    2.78   0
   7  -4  -7    2.71    1.05   0
   7  -3  -7   42.80    2.57   0
   7  -1  -6   13.72    2.09   0
   7   1  -8    0.62    1.94   0
   3  -6   5    6.64    1.58   0
   3  -4   6    3.20    1.44   0
   3   5   3  496.96    4.34   0
   4  -5   5   58.51    2.71   0
   4  -2   6   10.58    1.63   0
   5  -3   4   30.73    3.00   0
   5  -2   4  539.66    6.78   0
   5  -1   4    5.82    2.57   0
   6  -8  -4   29.67    2.74   0
   6  -6  -1  246.23    4.71   0
   6  -4   0  230.31    4.87   0
   6   1   0  258.23    5.15   0
   6   2  -1  117.92    3.96   0
   6   3  -2    3.23    2.54   0
   6   5  -5   -1.56    2.48   0
   7  -1  -7   53.49    2.60   0
   7   0  -8   31.99    2.35   0
   3  -3   6  324.58    3.72   0
   3  -1   6  373.75    3.90   0
   4   1   5    3.45    1.75   0
   4   3   4    8.86    1.76   0
   4   5   2  669.61    6.09   0
   4   7  -1   13.86    2.22   0
   5  -9  -1   -0.93    2.55   0
   5   1   3   86.65    3.47   0
   5   3   2    9.80    2.52   0
   5   4   1   36.38    2.89   0
   5   6  -2   16.50    2.69   0
   6  -7  -3    1.44    2.60   0
   6  -5  -1    0.49    2.61   0
   6  -3   0   11.92    2.87   0
   6  -2   0  369.10    6.02   0
   6   0   0  330.76    5.66   0
   6   4  -4    4.21    2.56   0
   6   5  -6    1.03    2.50   0
   7  -1  -9    7.12    2.17   0
   7  -1  -8   -0.35    1.90   0
   3  -7   4  904.30    5.98   0
   3  -2   6   77.85    1.94   0
   3   6   1    0.52    1.70   0
   5   5  -1    3.08    2.93   0
   6  -9  -8    0.15    2.16   0
   6  -8  -5    0.15    2.41   0
   6  -6  -2   35.65    2.92   0
   6   2  -2  148.66    4.27   0
   6   3  -3    5.49    2.69   0
   6   5  -7   27.75    3.08   0
   7  -2  -9   -0.74    1.83   0
   3  -5   5  504.77    4.60   0
   3   1   5 2330.19    9.31   0
   3   3   4  467.88    4.36   0
   4  -8   2    7.89    2.38   0
   4  -7   3    1.48    2.28   0
   4  -2   5    3.01    2.04   0
   4  -1   5    1.01    1.90   0
   4   6   0   11.19    2.19   0
   4   7  -2   45.88    2.97   0
   5  -9  -2   13.90    3.13   0
   5  -3   3   26.61    2.93   0
   5  -2   3   53.65    3.28   0
   5   3   1   14.60    2.72   0
   5   6  -3  286.74    4.95   0
   6  -7  -4   23.73    2.88   0
   6  -6  -3   60.58    3.66   0
   6  -5  -2   67.63    3.47   0
   6  -4  -1  113.29    3.90   0
   6  -3  -1   26.44    3.09   0
   6   4  -5   22.17    2.95   0
   3  -4   5    1.11    1.38   0
   3   5   2  128.38    2.58   0
   4  -5   4   16.79    2.31   0
   4   1   4    6.55    1.91   0
   4   3   3   57.85    2.45   0
   4   4   2  107.15    3.00   0
   4   5   1  167.53    3.52   0
   5  -5   2   69.96    3.44   0
   5   1   2    5.27    2.75   0
   6  -4  -2   46.26    3.68   0
   6   1  -2    9.09    2.88   0
   6   2  -3    2.19    2.77   0
   6   3  -4   38.94    3.11   0
   6   4  -6   13.62    3.18   0
   6   5  -8   24.03    2.87   0
   3  -6   4   81.40    2.37   0
   4  -6   3  263.10    4.50   0
   4  -4   4   26.53    2.45   0
   5  -8  -1   87.84    3.67   0
   5  -6   1   19.14    2.90   0
   5  -4   2   21.52    2.87   0
   5   0   2   38.27    3.10   0
   5   6  -4   65.00    3.41   0
   6  -8  -7    2.79    2.51   0
   6  -6  -4   34.99    3.05   0
   6  -5  -3   13.09    2.89   0
   6  -3  -2    0.38    2.79   0
   6  -1  -2    6.23    2.85   0
   6   0  -2  179.18    4.72   0
   6   3  -5    4.95    3.10   0
   6   5 -10    7.36    2.85   0
   6   5  -9   45.99    3.05   0
   3  -7   3  182.94    3.18   0
   3  -2   5   71.41    2.15   0
   3  -1   5 2448.34    9.66   0
   3   2   4   19.60    1.58   0
   4  -7   2   52.03    2.89   0
   4  -3   4    6.80    2.24   0
   4  -2   4  118.27    3.37   0
   4  -1   4    8.04    2.10   0
   4   2   3    2.86    1.97   0
   4   6  -1  320.13    4.58   0
   5  -9  -3    4.03    2.83   0
   5  -3   2    7.34    2.75   0
   6  -4  -3   20.86    3.00   0
   6   1  -3   57.88    3.41   0
   6   2  -4   10.67    2.87   0
   6   4  -7   41.76    3.18   0
   6   5 -11   11.55    2.65   0
   3  -5   4 1461.55    7.82   0
   3   3   3  925.23    6.14   0
   4  -5   3   95.19    3.30   0
   4   3   2  356.49    4.82   0
   4   4   1   74.64    2.86   0
   4   5   0  432.24    5.19   0
   5  -8  -2    4.65    2.92   0
   5  -4   1   34.25    3.15   0
   5   1   1   51.28    3.25   0
   5   5  -3  147.49    4.13   0
   5   6  -5  237.13    4.84   0
   6  -6  -5    0.96    2.74   0
   6  -5  -4   -0.76    2.75   0
   6  -2  -3    2.97    2.88   0
   6   1  -4    1.12    2.75   0
   6   2  -5   -0.02    3.24   0
   6   3  -6    4.66    2.84   0
   6   4  -8    7.07    2.77   0
   6   5 -13    7.76    2.65   0
   6   5 -12    5.21    2.51   0
   3   1   4   23.45    1.73   0
   3   5   1    1.51    1.58   0
   4   1   3  697.97    6.59   0
   4   6  -2    8.03    2.62   0
   5  -9  -4   75.40    3.65   0
   5  -3   1   13.51    2.92   0
   6  -8 -10    1.22    2.66   0
   6  -4  -4    2.03    2.85   0
   6   0  -4    1.48    2.79   0
   6   3  -7    1.82    2.68   0
   6   4  -9   32.08    3.11   0
   3  -6   3  166.96    3.16   0
   3  -4   4   99.66    2.53   0
   3   0   4  158.78    2.92   0
   4  -6   2    6.55    2.47   0
   4  -4   3  186.98    4.01   0
   4  -3   3   58.90    2.83   0
   4   2   2  511.15    5.77   0
   5  -8  -3   83.75    4.14   0
   5   5  -4   42.07    3.27   0
   6  -8 -11   72.19    3.09   0
   6  -6  -6    9.01    2.78   0
   6  -5  -5   -3.32    2.82   0
   6  -3  -4   42.07    3.41   0
   6   1  -5   25.14    3.23   0
   6   2  -6   18.09    3.17   0
   6   4 -10   57.19    3.34   0
   3  -2   4   20.39    1.80   0
   3  -1   4   22.50    1.80   0
   3   2   3    3.43    1.62   0
   3   6  -1    0.25    1.70   0
   4  -8   0   20.42    2.71   0
   4  -7   1    8.71    2.62   0
   4  -2   3    3.66    2.22   0
   4   3   1  473.37    5.59   0
   4   5  -1  167.77    3.71   0
   5  -9  -5    1.79    3.47   0
   5  -6  -1   20.16    3.13   0
   5   2  -1  160.11    4.52   0
   5   3  -2    8.73    2.85   0
   6  -8 -13   71.95    2.84   0
   6  -8 -12    6.23    2.37   0
   6  -6  -7   86.72    3.75   0
   6  -5  -6    0.41    2.85   0
   6   1  -6   12.96    3.46   0
   6   2  -7   16.17    3.00   0
   6   3  -8   11.04    2.86   0
   6   4 -11  146.72    4.15   0
   3  -7   2  518.59    4.99   0
   3   3   2  538.78    5.04   0
   4  -5   2  676.60    6.89   0
   4   1   2   77.60    3.00   0
   5  -5  -1    5.42    2.93   0
   5   5  -5   -1.36    2.88   0
   6  -6  -8   12.40    2.83   0
   6  -4  -6    9.88    2.94   0
   6  -3  -5    2.66    2.88   0
   6  -1  -5   26.47    3.21   0
   6   4 -16    2.70    2.39   0
   6   4 -14   10.05    2.63   0
   6   4 -13   16.81    2.84   0
   3  -5   3  527.18    5.04   0
   3   1   3 1295.99    7.55   0
   4  -4   2  113.82    3.57   0
   4   2   1  232.28    4.27   0
   5  -9  -6    3.13    3.53   0
   5  -8  -4   14.75    3.25   0
   5  -6  -2   15.40    3.11   0
   5   2  -2  578.61    7.37   0
   5   6  -8    2.94    2.98   0
   6  -3  -6    1.22    2.83   0
   6  -1  -6   10.74    3.10   0
   6   0  -6   -2.21    2.82   0
   6   1  -7   17.17    3.15   0
   6   2  -8   90.59    3.89   0
   3  -4   3   74.04    2.44   0
   4  -8  -1  169.53    4.15   0
   4  -7   0  683.52    7.03   0
   4  -2   2  536.16    6.27   0
   4  -1   2   81.25    3.15   0
   4   3   0   13.88    2.31   0
   4   5  -2  671.88    6.64   0
   5  -4  -1   34.78    3.30   0
   5  -3  -1   11.51    3.07   0
   5   3  -3   31.73    3.19   0
   5   5  -6    8.28    2.93   0
   5   6  -9   11.27    3.51   0
   6  -6  -9   79.13    3.63   0
   6  -5  -8   23.36    3.20   0
   6  -4  -7   39.85    3.41   0
   6   2  -9    2.21    2.91   0
   6   3 -12    0.09    2.89   0
   3  -6   2    0.99    1.81   0
   3  -3   3  938.01    6.64   0
   3   6  -2    1.31    1.87   0
   4   1   1  543.54    6.22   0
   4   6  -4  392.29    5.32   0
   5  -9  -7   10.69    3.21   0
   5  -8  -5  460.92    6.73   0
   5  -6  -3  282.77    5.70   0
   5  -5  -2   66.42    3.82   0
   5   1  -2    4.47    2.84   0
   5   5  -7    0.82    3.39   0
   6  -6 -10   18.75    2.92   0
   6  -5  -9   42.15    3.39   0
   6  -4  -8    7.37    3.01   0
   6  -3  -7   -1.15    2.87   0
   6  -1  -7   17.19    3.13   0
   6   0  -8   79.06    3.99   0
   6   2 -10  127.73    4.27   0
   6   3 -17    7.60    2.49   0
   6   3 -16    5.25    2.52   0
   6   3 -15    5.24    2.64   0
   6   3 -14   -0.23    2.72   0
   6   3 -13   -1.79    2.76   0
   3  -7   1   33.19    2.23   0
   3  -2   3    2.07    1.24   0
   3   5  -1    1.15    1.98   0
   4  -9  -3   14.24    2.90   0
   4  -4   1   82.85    3.31   0
   5  -4  -2   21.07    3.30   0
   5   0  -2   39.55    3.45   0
   5   2  -3   49.28    3.49   0
   5   3  -4   25.04    3.26   0
   5   6 -10    6.68    3.13   0
   6  -6 -12    3.14    2.73   0
   6  -5 -10    9.84    2.95   0
   6  -4  -9   30.99    3.25   0
   6  -3  -8   13.48    3.12   0
   6  -1  -8    6.99    3.10   0
   6   1 -10   57.36    3.59   0
   6   2 -12  153.57    4.41   0
   6   2 -11   83.62    3.79   0
   3   1   2    3.12    1.57   0
   4  -8  -2    4.61    2.82   0
   4  -3   1  498.62    6.19   0
   4   3  -1  453.60    5.76   0
   4   5  -3   93.42    3.30   0
   4   6  -5   -2.00    2.82   0
   5  -9  -8   12.17    3.21   0
   5  -8  -6   24.59    3.54   0
   5  -5  -3  148.28    4.76   0
   5  -3  -2    9.17    2.94   0
   5  -2  -2  598.44    7.78   0
   5   1  -3   88.96    4.06   0
   5   6 -11   23.95    3.23   0
   6  -6 -16    8.95    2.61   0
   6  -6 -15    0.04    2.69   0
   6  -6 -14   21.55    2.80   0
   6  -6 -13   57.27    3.30   0
   6  -5 -11   15.40    3.03   0
   6  -4 -10   54.41    3.58   0
   6  -3  -9    0.21    2.92   0
   6  -1  -9   16.20    3.21   0
   6   0 -10  138.86    4.53   0
   6   2 -18   36.31    2.80   0
   6   2 -17    6.29    2.81   0
   6   2 -14    5.72    2.73   0
   6   2 -13   -0.48    2.80   0
   4  -5   0  446.59    6.04   0
   4   1   0  148.27    3.83   0
   5  -9  -9    7.47    3.53   0
   5  -6  -4   67.57    3.87   0
   5  -4  -3  153.28    4.76   0
   5   2  -4  524.74    7.29   0
   5   3  -5   57.57    3.72   0
   5   6 -12    8.19    3.10   0
   6  -5 -12    4.42    2.80   0
   6  -4 -11  151.70    4.56   0
   6  -3 -10   26.35    3.35   0
   6  -1 -10   55.99    3.66   0
   6   1 -12   10.73    3.04   0
   3  -6   1   -0.45    1.84   0
   3  -4   2    8.79    1.82   0
   3   2   1  382.55    4.01   0
   3   6  -3  173.27    3.26   0
   4  -9  -4  213.70    4.74   0
   4   5  -4   19.31    2.76   0
   5  -8  -7  205.81    5.17   0
   5  -5  -4   44.79    3.74   0
   5  -3  -3   32.14    3.48   0
   5  -2  -3   53.79    3.74   0
   5  -1  -3   91.41    4.12   0
   5   1  -4    0.11    2.98   0
   5   4  -7  202.64    5.10   0
   6  -5 -17    0.11    2.29   0
   6  -5 -16    4.06    2.37   0
   6  -5 -15    1.62    2.54   0
   6  -5 -14    8.88    2.80   0
   6  -5 -13    9.30    2.71   0
   6  -4 -12   76.73    3.84   0
   6  -3 -11   44.27    3.51   0
   6  -2 -11   78.32    4.07   0
   6  -1 -11   34.39    3.53   0
   6   0 -12  160.79    4.75   0
   6   1 -18    1.96    2.44   0
   6   1 -17    6.39    2.50   0
   6   1 -16    5.16    2.57   0
   6   1 -15    0.59    2.57   0
   6   1 -14    4.97    2.83   0
   6   1 -13   -1.39    2.81   0
   3  -3   2  545.73    5.20   0
   3  -2   2  329.09    4.19   0
   3  -1   2    3.35    1.65   0
   3   5  -2  135.55    3.10   0
   4  -8  -3  154.57    4.35   0
   4  -7  -2   55.99    3.38   0
   4  -3   0   12.25    2.52   0
   4   0   0  179.40    3.78   0
   4   2  -1  233.64    4.45   0
   4   3  -2  356.61    5.31   0
   4   6  -6  109.99    3.71   0
   5  -9 -10    3.28    3.25   0
   5  -8  -8    1.59    3.32   0
   5  -4  -4    9.56    3.23   0
   5   2  -5   64.67    3.88   0
   5   3  -6   10.82    3.12   0
   5   4  -8    0.15    3.05   0
   5   5 -10   35.52    3.50   0
   6  -4 -17   11.72    2.78   0
   6  -4 -15   11.85    2.63   0
   6  -4 -14   10.17    2.81   0
   6  -4 -13   17.31    2.98   0
   6  -3 -13   -0.40    2.77   0
   6  -2 -12  144.53    4.65   0
   6  -1 -12    8.98    2.99   0
   6   0 -18   41.03    2.92   0
   6   0 -14   13.31    2.95   0
   3  -8  -1   21.48    2.29   0
   3   4  -1  160.00    3.00   0
   4  -5  -1  167.62    4.24   0
   4  -2   0  209.44    4.12   0
   5  -9 -11    2.53    3.23   0
   5  -5  -5    0.66    3.23   0
   5  -3  -4   29.69    3.54   0
   5  -2  -4  523.42    7.61   0
   5  -1  -4    3.40    3.16   0
   5   3  -7   -1.16    3.10   0
   5   5 -11   -2.43    3.11   0
   6  -4 -16    2.78    2.47   0
   6  -3 -14    1.95    2.77   0
   6  -2 -18   32.12    2.73   0
   6  -2 -17    7.78    2.90   0
   6  -2 -14    5.29    2.90   0
   6  -2 -13    2.70    2.84   0
   6  -1 -18    2.89    2.46   0
   6  -1 -16    4.55    2.61   0
   6  -1 -15   -0.19    2.68   0
   6  -1 -14    2.94    2.79   0
   6   0 -16    6.65    2.69   0
   3   6  -4   75.59    2.85   0
   4  -9  -5    2.36    3.02   0
   4   5  -5   58.22    3.18   0
   5  -9 -12   17.70    3.29   0
   5  -8  -9    3.15    3.39   0
   5  -4  -5  300.90    6.13   0
   5   2  -6  288.57    5.87   0
   5   5 -12   21.89    3.43   0
   6  -2 -16    3.85    2.56   0
   3  -4   1  168.64    3.34   0
   4  -7  -3    3.52    2.82   0
   4  -3  -1  470.03    6.23   0
   5  -9 -14   11.83    3.47   0
   5  -9 -13    1.21    3.14   0
   5  -8 -10    1.75    3.37   0
   5  -6  -7  489.45    7.50   0
   5  -5  -6   12.59    3.44   0
   5  -3  -5   55.08    4.00   0
   5  -2  -5   63.34    4.15   0
   5  -1  -5   70.08    4.13   0
   5   1  -6    1.90    3.14   0
   5   2  -7   12.45    3.30   0
   5   3  -8   -0.76    3.12   0
   5   5 -14   19.48    3.88   0
   5   5 -13   31.82    3.56   0
   3  -3   1  203.95    3.55   0
   3  -2   1  445.35    4.89   0
   3  -1   1  373.32    4.47   0
   4  -9  -6  103.08    4.13   0
   4  -5  -2  651.20    7.32   0
   4   1  -2   73.79    3.27   0
   4   5  -6   13.89    2.88   0
   4   6  -8    4.57    2.88   0
   5  -9 -18    2.07    2.67   0
   5  -9 -16    6.45    2.91   0
   5  -9 -15   -0.17    3.02   0
   5  -8 -11   15.79    3.36   0
   5  -7  -9    7.71    3.98   0
   5  -4  -6  575.96    8.14   0
   5   0  -6  252.50    5.78   0
   5   3  -9   63.29    3.93   0
   5   4 -11   22.99    3.53   0
   5   5 -17   -1.29    3.10   0
   5   5 -16   12.44    3.30   0
   5   5 -15    1.75    3.13   0
   3  -8  -2   23.80    2.40   0
   3  -7  -1   25.41    2.32   0
   3   4  -2    9.91    1.84   0
   4  -8  -5   13.26    3.59   0
   4  -6  -3  261.23    5.19   0
   4   2  -3    0.84    2.41   0
   4   4  -5   70.59    3.37   0
   5  -8 -12    1.26    3.14   0
   5  -6  -8   -0.31    3.44   0
   5  -5  -7    2.02    3.37   0
   5  -3  -6   13.64    3.46   0
   5  -2  -6  301.87    6.35   0
   5  -1  -6    3.07    3.25   0
   5   1  -7   -0.11    3.22   0
   5   2  -8  330.85    6.42   0
   5   4 -12    2.97    3.20   0
   3   6  -5    7.55    2.06   0
   4  -9  -7   -1.39    3.69   0
   4  -4  -2  112.41    3.76   0
   4  -3  -2  349.38    5.60   0
   4   0  -2  417.45    5.63   0
   4   3  -4    9.50    2.55   0
   4   5  -7  332.75    5.70   0
   4   6  -9  240.93    4.96   0
   5  -8 -13   96.69    4.36   0
   5  -7 -10   16.16    3.59   0
   5  -4  -7  208.47    5.78   0
   5   2  -9  149.89    4.95   0
   5   4 -21   -0.14    2.85   0
   5   4 -13   20.47    3.56   0
   4  -5  -3   89.69    3.74   0
   4   1  -3  685.21    7.33   0
   5  -8 -20    2.03    2.60   0
   5  -8 -15  138.83    4.55   0
   5  -8 -14   19.59    3.51   0
   5  -7 -11    4.91    3.51   0
   5  -6  -9    6.34    3.43   0
   5  -3  -7    2.44    3.23   0
   5  -1  -7   -0.04    3.15   0
   5   1  -8   -1.08    3.16   0
   5   3 -11    0.43    3.40   0
   5   4 -20    1.07    2.92   0
   5   4 -15  116.84    4.58   0
   5   4 -14  123.63    4.68   0
   3  -6  -1    0.08    2.01   0
   3   2  -1  385.23    4.36   0
   3   5  -4 1400.34    8.24   0
   4 -10 -10   61.09    4.00   0
   4  -8  -6    0.58    3.18   0
   4  -7  -5    7.36    3.13   0
   4  -6  -4  402.53    6.23   0
   4   2  -4  119.07    3.84   0
   4   3  -5  224.61    4.70   0
   4   4  -6   25.99    2.95   0
   4   6 -10   39.52    3.33   0
   5  -8 -18    5.11    2.89   0
   5  -8 -17   76.80    3.85   0
   5  -8 -16   -0.98    3.15   0
   5  -7 -12   16.76    3.67   0
   5  -5  -9   15.30    3.69   0
   5  -4  -8   -2.74    3.31   0
   5  -3  -8   -2.09    3.23   0
   5  -1  -8    0.79    3.19   0
   5   0  -8  707.95    8.93   0
   5   2 -10   13.71    3.55   0
   5   3 -22    1.21    2.74   0
   5   4 -18   22.53    3.50   0
   5   4 -17   67.79    3.99   0
   3  -8  -3   99.23    3.23   0
   3  -7  -2  543.96    5.75   0
   3   6  -6   10.11    2.54   0
   4 -10 -11   18.73    4.15   0
   4  -9  -8  305.67    5.90   0
   4  -3  -3   60.28    3.34   0
   4   5  -8  361.93    5.81   0
   4   6 -11   54.83    3.93   0
   5  -7 -21   -0.22    2.36   0
   5  -7 -13   14.55    3.59   0
   5  -6 -11   27.74    3.84   0
   5  -5 -10   29.47    3.72   0
   5   1 -10    2.21    3.31   0
   5   3 -21    3.83    2.92   0
   3   1  -1  383.15    4.62   0
   4  -9  -9    9.93    4.09   0
   4  -8  -7   24.60    3.38   0
   4   1  -4    7.97    2.60   0
   4   4  -7   45.47    3.34   0
   4   5  -9   48.45    3.80   0
   5  -7 -20    0.38    2.77   0
   5  -7 -19    2.07    2.78   0
   5  -7 -16   21.21    3.86   0
   5  -7 -15    1.52    3.26   0
   5  -7 -14   16.65    3.48   0
   5  -6 -12    8.28    3.59   0
   5  -1  -9   27.29    3.74   0
   5   0 -10   17.59    3.56   0
   5   2 -23    3.66    2.23   0
   5   2 -23    1.48    1.45   0
   5   2 -12  116.14    4.81   0
   5   3 -20   14.88    3.25   0
   5   3 -19    6.06    3.16   0
   5   3 -18    4.24    3.68   0
   5   3 -16    1.59    3.22   0
   3  -4  -1  152.71    3.41   0
   3   5  -5  500.06    5.45   0
   4 -10 -12    3.59    3.43   0
   4  -7  -6   -0.43    3.13   0
   4  -6  -5   -0.13    2.93   0
   4  -4  -4   26.55    3.03   0
   4   0  -4   93.58    3.62   0
   4   2  -5    3.56    2.51   0
   4   3  -6    0.94    2.58   0
   4   6 -12    2.53    3.10   0
   5  -7 -18    6.20    2.90   0
   5  -7 -17    2.84    3.02   0
   5  -6 -22   24.10    2.86   0
   5  -6 -13  109.27    4.76   0
   5  -5 -11   -1.08    3.40   0
   5  -1 -10    0.19    3.30   0
   5   2 -22   13.60    3.00   0
   5   2 -13    5.43    3.55   0
   5   3 -17    3.17    3.21   0
   3  -8  -4   -0.01    2.69   0
   3  -7  -3  180.28    3.92   0
   3  -6  -2    1.11    1.98   0
   3  -3  -1  211.02    3.79   0
   3   4  -4   96.72    2.88   0
   3   6  -7    9.33    2.67   0
   4 -10 -13   45.19    3.89   0
   4  -8  -8   40.12    3.75   0
   4  -5  -5   57.29    3.56   0
   4  -3  -4    6.77    2.72   0
   4  -2  -4  119.31    3.97   0
   4  -1  -4    6.78    2.69   0
   4   1  -5    1.22    2.58   0
   4   4  -8   46.13    3.44   0
   4   5 -10  437.24    6.49   0
   4   6 -13   80.04    4.05   0
   5  -6 -21    1.70    2.65   0
   5  -6 -20   18.12    3.12   0
   5  -6 -15  125.81    4.83   0
   5  -6 -14   11.53    3.48   0
   5  -5 -13   33.21    3.85   0
   5  -5 -12   25.28    3.67   0
   5  -3 -11    1.51    3.43   0
   5  -1 -24    5.34    2.83   0
   5   0 -24   24.70    2.81   0
   5   1 -13  114.51    4.84   0
   5   1 -12    2.64    3.35   0
   5   2 -21    0.73    2.94   0
   5   2 -15   12.79    3.57   0
   5   2 -14  101.84    4.61   0
   3  -2  -1  403.79    4.68   0
   4 -10 -14    6.22    3.49   0
   4  -6  -6  109.53    4.23   0
   4   2  -6   11.64    2.79   0
   4   3  -7  268.05    5.23   0
   4   6 -14   86.19    4.16   0
   5  -6 -19   52.23    3.59   0
   5  -6 -18    4.10    3.14   0
   5  -6 -17   38.19    3.71   0
   5  -6 -16   29.16    3.57   0
   5  -5 -22    1.40    2.58   0
   5  -5 -21    0.14    2.72   0
   5  -5 -14   21.56    3.76   0
   5  -4 -23   70.12    3.45   0
   5  -4 -12    3.70    3.50   0
   5  -3 -12    3.39    3.40   0
   5  -1 -12    3.46    3.47   0
   5   0 -12   14.81    3.54   0
   5   1 -22    1.44    2.76   0
   5   1 -21   -0.27    2.92   0
   5   1 -14    0.51    3.51   0
   5   2 -18  109.91    4.66   0
   3   1  -2    4.07    1.96   0
   4 -10 -20   10.99    3.24   0
   4 -10 -18    2.46    3.61   0
   4 -10 -17   -0.31    3.70   0
   4 -10 -16    3.35    3.49   0
   4 -10 -15   16.39    3.68   0
   4  -4  -5   71.88    3.57   0
   4  -1  -5   -1.01    2.60   0
   4   4  -9  219.19    5.03   0
   4   5 -11   17.86    3.35   0
   5  -5 -20    1.76    2.95   0
   5  -5 -19    1.06    2.98   0
   5  -5 -18    5.59    3.13   0
   5  -5 -17   -0.53    3.19   0
   5  -5 -16   14.02    3.63   0
   5  -5 -15    3.31    3.44   0
   5  -4 -22    4.44    2.82   0
   5  -4 -14  130.54    5.14   0
   5  -4 -13   17.94    3.60   0
   5  -3 -23   -1.14    2.53   0
   5  -2 -23    4.96    2.74   0
   5  -2 -13    6.02    3.51   0
   5  -1 -13  127.31    5.08   0
   5   0 -22   39.38    3.46   0
   5   0 -14  152.45    5.39   0
   5   1 -20    0.62    3.10   0
   5   1 -18   10.76    3.33   0
   5   1 -16    1.70    3.45   0
   5   1 -15    9.85    3.61   0
   3  -9  -6 1100.90    8.68   0
   3  -6  -3  181.02    3.85   0
   3  -4  -2    6.58    2.11   0
   3   0  -2  217.74    3.81   0
   3   2  -3    1.79    1.97   0
   3   5  -6 1738.35    9.59   0
   3   6  -8    3.00    2.73   0
   4  -9 -12  233.05    5.74   0
   4  -5  -6   12.70    3.14   0
   4  -2  -5    2.48    1.94   0
   4   1  -6    7.98    2.75   0
   4   2  -7   41.11    3.25   0
   4   3  -8  105.03    4.09   0
   4   5 -12  120.31    4.47   0
   5  -4 -21   -0.93    2.80   0
   5  -4 -20    0.84    2.97   0
   5  -4 -19   54.40    3.80   0
   5  -4 -17   72.53    4.27   0
   5  -4 -15  126.46    5.04   0
   5  -3 -22   -0.67    2.77   0
   5  -3 -14   32.46    4.02   0
   5  -2 -14  109.38    5.00   0
   5  -1 -22    2.27    2.83   0
   5  -1 -21    0.76    2.95   0
   5  -1 -15    9.72    3.56   0
   5  -1 -14    0.81    3.56   0
   5   0 -20   36.21    3.68   0
   5   0 -18   75.06    4.22   0
   5   0 -16  268.87    6.37   0
   3  -8  -5    5.29    2.61   0
   3  -3  -2  545.16    5.70   0
   3   3  -4  494.44    5.35   0
   3   4  -5    0.70    1.99   0
   4  -9 -23    0.60    2.76   0
   4  -9 -13   37.96    4.05   0
   4  -4  -6   28.65    3.22   0
   4   0  -6    6.58    2.72   0
   4   4 -10   43.70    3.51   0
   4   5 -13  159.45    4.88   0
   5  -2 -20   10.93    3.23   0
   5  -2 -19   -0.46    3.09   0
   5  -2 -18  119.33    4.74   0
   5  -2 -17   28.12    3.81   0
   5  -2 -16   90.94    4.67   0
   5  -2 -15   11.17    3.60   0
   5  -1 -20    1.06    3.12   0
   5  -1 -19    2.36    3.29   0
   5  -1 -18   11.87    3.49   0
   5  -1 -17   25.01    3.75   0
   5  -1 -16    2.21    3.51   0
   3  -2  -2  319.37    4.28   0
   3   1  -3 1216.32    8.05   0
   4  -9 -14   10.62    3.67   0
   4  -6  -8    5.30    3.35   0
   4  -3  -6   -1.82    2.70   0
   4  -2  -6   11.34    2.84   0
   4  -1  -6   11.84    2.74   0
   4   1  -7   95.83    3.87   0
   4   2  -8  402.71    6.33   0
   4   3  -9  538.91    7.19   0
   4   4 -11  306.12    5.87   0
   4   5 -14   82.36    4.26   0
   3  -9  -7   39.40    3.29   0
   3   5  -7  210.35    3.98   0
   3   6  -9    0.09    2.37   0
   4  -9 -21   16.29    3.28   0
   4  -9 -20   40.68    4.04   0
   4  -9 -16    2.77    3.65   0
   4  -9 -15   50.45    4.25   0
   4  -8 -24    0.02    2.94   0
   4  -4  -7   41.31    3.56   0
   4   5 -21   24.98    3.70   0
   4   5 -15    3.26    3.39   0
   3  -7  -5    3.07    2.59   0
   3  -6  -4   83.79    3.17   0
   3   2  -4   19.40    2.18   0
   3   4  -6    4.38    2.12   0
   4  -9 -19    0.48    3.36   0
   4  -9 -17    1.06    3.53   0
   4  -8 -13  159.42    5.73   0
   4  -3  -7  273.65    5.57   0
   4  -2  -7   42.53    3.46   0
   4  -1  -7   97.27    3.92   0
   4   1  -8   47.07    3.51   0
   4   2 -27    1.31    2.89   0
   4   2  -9    9.27    3.15   0
   4   3 -26   -0.19    2.33   0
   4   3 -26    0.09    1.52   0
   4   4 -24    8.19    3.21   0
   4   5 -19   37.38    3.96   0
   4   5 -18   14.92    3.65   0
   4   5 -17    2.57    3.55   0
   3  -9  -8  201.79    4.74   0
   3  -3  -3  961.05    7.48   0
   3  -2  -3    1.97    2.02   0
   3   5  -8  492.78    5.84   0
   3   6 -10    7.46    2.63   0
   4  -8 -14   -0.12    3.66   0
   4  -7 -25    0.19    2.64   0
   4  -7 -11   -1.27    3.49   0
   4  -4  -8   44.83    3.71   0
   4   0  -8  115.39    4.23   0
   4   3 -25    2.83    3.41   0
   4   3 -11  145.73    4.79   0
   4   4 -23   12.47    3.49   0
   4   4 -14   -0.48    3.82   0
   4   4 -13   15.24    3.37   0
   3   1  -4   22.46    2.28   0
   4  -7 -24   35.10    3.62   0
   4  -6 -26    2.74    2.58   0
   4  -6 -10   37.55    3.82   0
   4  -5  -9   44.76    3.77   0
   4  -3  -8  103.60    4.21   0
   4  -1  -8   45.11    3.45   0
   4   1  -9 1043.07    9.84   0
   4   2 -26    2.38    2.82   0
   4   4 -22   80.78    4.27   0
   4   4 -15   18.45    3.63   0
   3  -9  -9   56.48    4.10   0
   3  -8  -7    0.34    2.74   0
   3  -7  -6 1438.13    9.95   0
   3   2  -5   70.05    2.78   0
   3   6 -11    1.93    2.68   0
   4  -7 -13    9.65    3.77   0
   4  -6 -11   62.20    4.24   0
   4  -5 -10  425.64    7.13   0
   4  -4  -9  206.12    5.39   0
   4  -3  -9  499.31    7.37   0
   4   2 -11  202.56    5.28   0
   4   3 -24    5.22    3.33   0
   4   4 -17    1.98    3.58   0
   4   4 -16   11.31    3.56   0
   3 -10 -12   39.28    4.26   0
   4  -7 -23    0.47    2.98   0
   4  -7 -22   68.48    3.98   0
   4  -6 -25    6.57    2.81   0
   4  -6 -12    4.14    3.46   0
   4  -5 -26    1.69    2.70   0
   4  -4 -10   41.96    3.79   0
   4  -3 -27    1.37    2.97   0
   4  -1 -27    0.18    3.02   0
   4   0 -10  640.98    8.11   0
   4   2 -25    6.88    3.27   0
   4   2 -12  223.69    5.56   0
   4   3 -23   48.02    3.97   0
   3  -8  -8   20.59    3.07   0
   3  -5  -5  496.38    5.94   0
   3  -2  -4   18.41    2.18   0
   3   6 -12    5.77    2.86   0
   4  -7 -21    0.83    3.42   0
   4  -7 -20   83.64    4.37   0
   4  -7 -17    6.35    4.20   0
   4  -7 -16    0.42    3.63   0
   4  -7 -15    8.28    3.72   0
   4  -6 -24    1.79    3.10   0
   4  -5 -25    1.49    2.80   0
   4  -4 -26   -1.28    2.67   0
   4  -3 -10  231.31    5.69   0
   4  -2 -27    3.70    2.65   0
   4  -1 -10  131.21    4.66   0
   4   0 -26   -2.07    2.85   0
   4   1 -11  227.75    5.51   0
   4   2 -24   43.46    3.87   0
   4   2 -13   31.78    3.57   0
   4   3 -22   47.40    4.10   0
   3 -10 -13    0.46    3.38   0
   3  -9 -10   27.88    3.49   0
   3  -7  -7   19.95    2.94   0
   3   4  -8   78.48    3.08   0
   3   5 -10    4.43    2.57   0
   3   6 -13   16.63    3.55   0
   4  -7 -18   49.46    4.15   0
   4  -6 -14   88.96    4.86   0
   4  -5 -12  124.91    4.96   0
   4  -4 -11  295.59    6.31   0
   4  -3 -26    2.46    2.93   0
   4  -2 -26    2.86    2.86   0
   4  -1 -26    4.64    3.08   0
   4   1 -25    1.28    3.00   0
   4   1 -12    0.79    3.26   0
   4   2 -14    3.41    3.46   0
   3 -10 -23   -1.04    3.13   0
   3 -10 -14    7.78    3.69   0
   3  -9 -11    0.05    3.69   0
   3  -8  -9   24.40    3.64   0
   3  -4  -5   -0.10    2.06   0
   4  -6 -21   48.81    4.12   0
   4  -6 -16   25.69    3.97   0
   4  -5 -24    1.60    3.00   0
   4  -4 -25    0.27    2.92   0
   4  -4 -12  203.97    5.65   0
   4  -3 -25    1.73    2.89   0
   4  -1 -25    3.19    3.01   0
   4  -1 -11  199.18    4.88   0
   4   0 -12   93.19    4.40   0
   4   1 -24   -0.56    3.29   0
   4   1 -13  115.33    4.72   0
   4   2 -21   22.83    3.82   0
   3 -10 -22    0.54    3.33   0
   3 -10 -21    4.11    3.84   0
   3 -10 -15    1.74    3.69   0
   3  -9 -25   33.32    3.64   0
   3  -7  -8  286.29    5.23   0
   3  -3  -5 1162.87    8.34   0
   3  -2  -5   70.12    2.85   0
   3   1  -6  383.16    5.07   0
   3   3 -29    1.55    3.02   0
   3   4  -9    0.75    2.33   0
   3   5 -11   16.43    2.77   0
   3   6 -14  106.42    4.06   0
   4  -6 -17    1.21    3.61   0
   4  -5 -15    0.98    3.56   0
   4  -5 -14   85.66    4.61   0
   4  -4 -24    9.92    3.30   0
   4  -4 -13   16.49    3.69   0
   4  -3 -24    6.86    3.21   0
   4  -3 -12   12.92    3.37   0
   4  -2 -25    6.74    3.15   0
   4   0 -24    6.51    3.37   0
   4   1 -23   28.14    3.65   0
   4   1 -22    7.89    3.52   0
   4   1 -14   -0.56    3.39   0
   4   2 -19    0.47    3.55   0
   4   2 -17   10.59    3.62   0
   4   2 -16   -0.34    3.42   0
   3 -10 -20    0.10    3.65   0
   3 -10 -19    0.31    3.61   0
   3 -10 -18    9.34    3.81   0
   3 -10 -17    7.13    3.82   0
   3  -9 -12  174.47    5.10   0
   3  -8 -27    1.74    2.85   0
   3  -8 -10   -1.45    3.05   0
   3  -4  -6    4.54    2.20   0
   3   6 -15    2.56    3.14   0
   4  -5 -20  180.47    5.76   0
   4  -5 -18   17.36    3.97   0
   4  -5 -17    1.85    3.66   0
   4  -5 -16   51.32    4.30   0
   4  -4 -23   15.74    3.51   0
   4  -4 -22   77.26    4.44   0
   4  -4 -15   23.11    3.81   0
   4  -4 -14    0.16    3.52   0
   4  -3 -14   50.02    4.12   0
   4  -3 -13   85.97    4.40   0
   4  -2 -24   42.99    3.84   0
   4  -1 -23   28.85    3.78   0
   4  -1 -13  118.79    4.75   0
   4   0 -22   96.00    5.18   0
   4   0 -14   51.90    4.10   0
   4   1 -21  284.58    6.63   0
   4   1 -17   98.23    4.77   0
   3  -9 -24   66.62    3.97   0
   3  -9 -13    0.23    3.50   0
   3  -7 -28   13.52    2.83   0
   3  -3  -6  333.84    4.98   0
   3   4 -10    5.66    2.52   0
   3   5 -12  228.40    4.81   0
   4  -4 -20   45.04    4.29   0
   4  -4 -18    9.73    3.67   0
   4  -4 -17    2.12    3.66   0
   4  -3 -15   33.55    3.95   0
   4  -2 -23    8.89    3.35   0
   4  -2 -22   24.87    3.87   0
   4  -1 -22    7.15    3.63   0
   4  -1 -15   78.49    4.45   0
   4  -1 -14    3.13    3.37   0
   4   0 -20  382.26    7.41   0
   4   1 -18   24.94    3.90   0
   3  -9 -23   10.39    3.55   0
   3  -9 -14  495.79    7.56   0
   3  -8 -11    0.43    3.07   0
   3  -7  -9   42.74    3.32   0
   3  -6  -8    6.37    2.63   0
   3  -1  -6  379.34    4.94   0
   3   2 -29    2.95    2.96   0
   3   4 -26    0.09    3.71   0
   3   5 -13  348.99    5.76   0
   4  -3 -16    4.39    3.46   0
   4  -2 -21   24.51    3.98   0
   4  -2 -19   -0.05    3.52   0
   4  -1 -21  285.52    6.69   0
   4  -1 -20   27.97    4.08   0
   4  -1 -18   29.31    4.07   0
   4  -1 -17   96.86    4.94   0
   4   0 -18    2.93    3.62   0
   3  -9 -22   22.09    3.84   0
   3  -9 -21   -0.07    4.02   0
   3  -9 -15   54.96    4.28   0
   3  -8 -12    5.20    3.81   0
   3  -7 -27   13.50    3.09   0
   3  -5 -29    1.42    2.57   0
   3  -4  -7  101.75    3.43   0
   3  -1 -30   -0.05    2.95   0
   3   0 -30   -0.34    2.21   0
   3   0 -30    0.54    1.45   0
   3   2  -8    0.22    1.55   0
   3   4 -11    2.78    2.60   0
   3   5 -23    4.14    3.69   0
   3   5 -14  721.76    7.90   0
   3  -9 -20   22.86    3.94   0
   3  -9 -19   25.78    4.09   0
   3  -9 -17    9.97    3.80   0
   3  -6 -28    0.57    2.71   0
   3  -6  -9    4.26    2.69   0
   3  -5  -8  511.21    6.40   0
   3  -2 -30    2.82    2.13   0
   3  -2  -7   57.21    2.87   0
   3  -1  -7  934.10    7.82   0
   3   1  -8  116.24    3.40   0
   3   2 -28   10.07    3.26   0
   3   3 -27   96.13    4.35   0
   3   4 -25    0.28    3.44   0
   3   4 -12    1.71    3.07   0
   3   5 -15  321.61    5.90   0
   3  -8 -13    6.59    3.45   0
   3  -7 -26  188.99    5.11   0
   3  -6 -27   -0.39    2.93   0
   3  -4 -29    0.76    2.82   0
   3  -4  -8   75.61    3.21   0
   3   2  -9   29.02    2.58   0
   3   3 -26   17.97    4.10   0
   3   4 -24    6.12    4.03   0
   3   5 -21   -0.66    3.57   0
   3   5 -17    3.53    3.38   0
   2 -10 -26    2.13    2.94   0
   3  -8 -15  126.66    5.43   0
   3  -8 -14   32.35    3.87   0
   3  -7 -25   16.47    3.53   0
   3  -6 -10    8.43    2.88   0
   3  -5  -9   85.47    3.55   0
   3  -3 -29    2.23    2.77   0
   3  -3  -8  260.69    4.74   0
   3  -2 -29   -0.71    2.87   0
   3  -1 -29   39.76    3.49   0
   3   2 -27    7.33    3.43   0
   3   4 -23    2.38    4.16   0
   3   4 -13    1.92    2.86   0
   2  -9 -28    6.55    2.34   0
   2  -8  -7  568.55    5.80   0
   3  -8 -16   16.90    3.92   0
   3  -7 -24  135.17    4.99   0
   3  -6 -26    2.81    3.24   0
   3  -4 -28   -0.70    2.97   0
   3  -4  -9    1.81    2.38   0
   3  -3 -28   46.20    4.04   0
   3  -2  -8   -1.14    2.22   0
   3  -1  -8  113.01    3.10   0
   3   0 -28    0.41    3.13   0
   3   2 -10    6.72    2.38   0
   3   3 -25  247.13    6.04   0
   3   4 -22    0.48    3.70   0
   3   4 -14   23.28    3.24   0
   2 -10 -25   -0.34    3.31   0
   3  -7 -23    5.76    3.64   0
   3  -7 -13   16.66    3.45   0
   3  -6 -25   -0.31    3.34   0
   3  -6 -11    2.03    2.90   0
   3  -5 -10   10.20    2.77   0
   3  -4 -27    8.18    3.28   0
   3  -3  -9   98.57    3.53   0
   3  -2 -28    6.70    3.16   0
   3  -1 -28    5.26    3.13   0
   3   2 -11    2.43    2.44   0
   3   3 -24  139.75    5.20   0
   3   4 -21   -1.17    3.56   0
   3   4 -20    5.06    4.13   0
   3   4 -15    2.52    3.11   0
   2 -10 -24    5.22    3.86   0
   2  -9 -27    3.67    3.06   0
   3  -7 -15  133.61    4.97   0
   3  -7 -14  360.69    6.65   0
   3  -6 -12    9.15    3.10   0
   3  -5 -11   17.23    2.94   0
   3  -4 -10    5.81    2.63   0
   3  -3 -27   92.57    4.43   0
   3  -2 -27    4.88    3.83   0
   3  -2  -9   29.48    2.69   0
   3  -1 -27  141.86    4.91   0
   3  -1  -9  871.97    7.93   0
   3   1 -26   10.39    3.55   0
   3   1 -10    0.95    1.71   0
   3   3 -23   68.33    4.49   0
   3   4 -19   -2.62    3.43   0
   3   4 -17   97.55    4.34   0
   2 -10 -23   42.39    4.35   0
   2  -9 -10  677.45    7.05   0
   2  -8  -8  133.58    3.52   0
   2   2 -31    1.92    2.88   0
   2   4 -29    4.19    3.29   0
   3  -7 -20   62.02    4.56   0
   3  -7 -19   15.89    3.91   0
   3  -7 -17    5.28    3.68   0
   3  -6 -23    3.33    3.60   0
   3  -6 -13   17.30    3.36   0
   3  -4 -26    0.49    3.33   0
   3  -3 -10   33.24    2.91   0
   3  -1 -10   -1.00    2.28   0
   3   0 -26    5.54    3.47   0
   3   0 -10    2.35    2.36   0
   3   1 -11  179.99    4.31   0
   3   2 -12   19.88    2.81   0
   3   3 -22   15.24    3.90   0
   2 -10 -22   -2.11    4.05   0
   2 -10 -14   15.38    4.04   0
   2  -9 -26    1.65    3.24   0
   2  -7 -29   -0.89    3.18   0
   2  -7  -7  119.19    3.21   0
   3  -6 -22   -0.37    3.78   0
   3  -6 -14  129.49    4.76   0
   3  -5 -12  244.32    5.38   0
   3  -4 -25    1.92    3.54   0
   3  -4 -11    2.46    2.70   0
   3  -2 -26    1.45    3.46   0
   3  -2 -10    2.09    1.80   0
   3  -1 -26    9.59    3.55   0
   3   1 -12  118.57    3.87   0
   3   2 -23    2.26    3.67   0
   3   2 -13    3.45    2.80   0
   3   3 -20   24.98    3.92   0
   2 -10 -15   -0.48    3.36   0
   2  -9 -25    1.47    3.42   0
   2  -9 -11  224.87    4.77   0
   2  -8  -9  248.83    4.75   0
   2  -6 -30    1.11    2.19   0
   2  -6 -30    0.41    1.53   0
   2  -4 -31    7.85    3.15   0
   2   4 -28    0.35    3.76   0
   3  -6 -20   16.46    3.92   0
   3  -6 -18   -0.97    3.64   0
   3  -6 -17   -0.45    3.56   0
   3  -6 -15    7.17    2.58   0
   3  -5 -23    7.37    3.79   0
   3  -5 -13  346.18    6.35   0
   3  -4 -24    7.75    3.72   0
   3  -4 -12    5.60    2.90   0
   3  -3 -25  231.73    6.32   0
   3  -3 -11    1.51    2.59   0
   3  -2 -25   -0.12    3.53   0
   3  -1 -11  179.75    4.39   0
   3   1 -24    6.42    3.57   0
   3   2 -22   13.61    3.79   0
   3   2 -14   30.63    3.21   0
   2 -10 -20   83.24    4.71   0
   2 -10 -19    1.63    3.75   0
   2 -10 -18    3.47    3.75   0
   2 -10 -17   58.88    4.31   0
   2 -10 -16    4.14    3.50   0
   2  -3 -31   72.45    3.62   0
   2   2 -30    9.65    3.21   0
   2   3 -29   63.03    4.04   0
   3  -5 -22   19.50    3.96   0
   3  -5 -21   -0.57    3.80   0
   3  -5 -15  312.59    6.43   0
   3  -5 -14  721.62    8.75   0
   3  -4 -23    0.56    3.71   0
   3  -4 -13    1.81    2.98   0
   3  -3 -12  310.40    5.71   0
   3  -2 -24    5.09    3.71   0
   3  -1 -24    7.38    3.78   0
   3  -1 -12  114.25    3.93   0
   3   0 -24    5.40    3.64   0
   3   0 -12    8.66    2.61   0
   3   1 -22    1.63    3.55   0
   3   1 -14   11.27    2.89   0
   3   1 -13  807.11    8.40   0
   3   2 -19   15.45    3.75   0
   3   2 -18    1.01    3.38   0
   3   2 -17   55.12    4.05   0
   3   2 -16    9.97    3.33   0
   3   2 -15   32.66    3.33   0
   2  -9 -12  347.64    5.76   0
   2  -7 -28   23.10    3.31   0
   2  -6 -29    2.73    3.06   0
   2  -6  -7  153.95    3.40   0
   2  -5 -30   66.50    3.66   0
   2  -2 -31    1.94    2.90   0
   2  -1 -31  122.58    4.25   0
   2   4 -27    1.88    3.92   0
   2   5 -25    2.60    4.13   0
   3  -5 -19   70.91    4.67   0
   3  -5 -18  212.66    6.05   0
   3  -5 -17    5.89    3.74   0
   3  -5 -16  362.59    6.95   0
   3  -4 -22    0.23    3.74   0
   3  -4 -21   -1.15    3.56   0
   3  -4 -14   25.49    3.44   0
   3  -3 -13  699.80    8.23   0
   3  -2 -23    1.50    3.66   0
   3  -1 -23  154.21    5.50   0
   3  -1 -13  813.79    8.61   0
   3   0 -22    1.99    3.62   0
   3   1 -20   24.48    3.82   0
   3   1 -15  514.83    7.35   0
   2  -9 -23   10.71    3.83   0
   2  -9 -13   25.32    3.35   0
   2  -8 -10   14.96    2.75   0
   2  -7 -27    4.05    3.83   0
   2  -4 -30    7.90    3.07   0
   2   2 -29    4.54    3.44   0
   3  -4 -19   -0.03    3.62   0
   3  -4 -17   95.55    4.62   0
   3  -4 -16  106.70    4.72   0
   3  -4 -15    1.06    3.21   0
   3  -3 -15  252.64    5.76   0
   3  -2 -22   14.00    3.98   0
   3  -1 -14    7.55    2.94   0
   3   0 -20   52.79    4.26   0
   3   0 -14   79.24    3.32   0
   3   1 -19  195.69    5.71   0
   3   1 -18   11.65    3.56   0
   3   1 -17  495.46    7.64   0
   2  -9 -21   16.73    3.82   0
   2  -9 -14  219.71    5.26   0
   2  -8 -11  204.03    4.91   0
   2  -7  -9    2.29    2.32   0
   2  -6 -28    7.41    3.22   0
   2  -5 -29   10.28    3.30   0
   2  -3 -30   29.73    3.51   0
   2  -2 -30    9.96    3.25   0
   2  -1 -30   12.65    3.22   0
   2   4 -26    7.89    3.82   0
   2   5 -24   46.20    4.16   0
   3  -3 -16   91.10    4.41   0
   3  -2 -20   39.69    4.20   0
   3  -2 -19   15.05    3.70   0
   3  -2 -18   -4.38    3.24   0
   3  -2 -17   51.27    3.95   0
   3  -2 -16   12.34    3.48   0
   3  -1 -20   24.51    3.96   0
   3  -1 -19  190.50    5.72   0
   3  -1 -18   11.67    3.54   0
   3  -1 -17  508.29    7.86   0
   3  -1 -16  107.75    4.49   0
   3  -1 -15  526.37    7.55   0
   1  -8 -30   -1.16    2.10   0
   1  -8 -30   -0.19    1.46   0
   2  -9 -16    1.84    3.52   0
   2  -9 -15    1.45    3.43   0
   2  -7 -26    2.59    3.52   0
   2  -6  -8   63.34    2.75   0
   2  -4 -29    4.77    3.31   0
   2   1 -29   94.59    4.49   0
   2   2 -28   22.41    3.85   0
   2   3 -27   -1.81    3.58   0
   2   5 -23  130.98    4.98   0
   1   2 -32    5.82    3.13   0
   2  -8 -12   33.03    3.21   0
   2  -7 -25    5.51    4.11   0
   2  -7 -10 1326.27    9.35   0
   2  -6 -27   37.32    3.87   0
   2  -3 -29   60.93    4.00   0
   2  -2 -29    5.86    3.21   0
   2   4 -25    1.22    3.80   0
   2   5 -22  387.53    6.91   0
   1   3 -31    0.42    3.34   0
   1   4 -30    6.65    3.55   0
   2  -8 -13   10.16    3.07   0
   2  -6 -26    2.72    3.50   0
   2  -5 -27    5.11    3.36   0
   2  -4 -28    0.63    3.32   0
   2   1 -28    2.90    3.47   0
   2   3 -26    9.92    3.80   0
   2   5 -14  128.14    3.75   0
   1  -9 -27    0.05    3.32   0
   1  -7 -30    2.92    2.97   0
   1  -6 -31    0.14    2.77   0
   1  -4 -32   -0.42    3.00   0
   2  -8 -15    8.04    3.79   0
   2  -8 -14   89.46    4.05   0
   2  -7 -11   90.23    3.52   0
   2  -2 -28   21.34    3.67   0
   2  -1 -28    3.68    3.43   0
   2   0 -28    8.17    3.51   0
   2   3 -25    4.35    4.26   0
   2   5 -16   17.02    3.49   0
   1 -10 -24   89.06    4.58   0
   1  -3 -32   10.10    3.22   0
   1   0 -32    1.43    2.77   0
   2  -8 -18    5.01    3.76   0
   2  -8 -17   22.45    3.81   0
   2  -8 -16    0.92    3.35   0
   2  -7 -23    8.28    3.88   0
   2  -7 -12  775.59    7.88   0
   2  -6 -25   -1.76    3.62   0
   2  -5 -26    4.41    3.63   0
   2  -4 -27   -0.46    3.41   0
   2   1 -27    9.32    3.58   0
   2   4 -12  180.02    3.83   0
   1 -10 -23   24.70    4.04   0
   1  -9 -26  130.41    4.91   0
   1  -7 -29    0.21    3.05   0
   1  -6 -30    4.75    2.99   0
   1  -5 -31    1.35    2.92   0
   1  -2 -32    8.85    2.90   0
   1  -1 -32    1.07    2.87   0
   1   2 -31    1.06    2.96   0
   1   3 -30    1.91    3.33   0
   1   4 -29   17.01    3.59   0
   2  -7 -22  310.24    6.96   0
   2  -6 -24   12.25    3.92   0
   2  -5 -25    0.37    3.61   0
   2  -5  -9  367.89    4.94   0
   2  -4 -26    6.74    3.61   0
   2  -3 -27    0.35    3.48   0
   2  -2 -27   -0.23    3.51   0
   2  -1 -27   11.83    3.82   0
   2   1 -26    2.42    3.68   0
   2   2 -25   24.61    4.02   0
   2   3 -24   38.82    4.21   0
   2   4 -21   54.02    4.56   0
   2   4 -13   72.60    3.08   0
   1 -10 -22    0.76    4.21   0
   1  -4 -31   -3.81    2.86   0
   2  -7 -20  229.71    6.10   0
   2  -6 -23   33.96    4.31   0
   2   0 -26    3.52    3.70   0
   2   3 -11  741.41    6.53   0
   2   4 -20   60.01    4.06   0
   2   4 -14    7.41    2.57   0
   1 -10 -21    5.10    4.19   0
   1  -9 -25   23.18    4.00   0
   1  -5 -30    2.60    2.98   0
   1  -3 -31    0.52    3.08   0
   1   2 -30   14.49    3.90   0
   1   5 -27   18.97    3.76   0
   2  -7 -19   11.06    3.66   0
   2  -7 -18  338.95    6.80   0
   2  -7 -17   -1.49    3.41   0
   2  -7 -16  141.96    4.88   0
   2  -6 -22   10.93    3.91   0
   2  -6 -12  197.97    4.43   0
   2  -5 -24   45.74    4.41   0
   2  -5 -10  804.84    7.20   0
   2  -4 -25    3.40    3.69   0
   2  -4  -9  447.87    5.27   0
   2  -2 -26   31.07    4.04   0
   2  -1 -26    0.28    3.62   0
   2   2 -24    4.69    3.82   0
   2   3 -22   27.76    3.93   0
   2   3 -12  367.95    5.01   0
   2   4 -19    2.26    3.23   0
   2   4 -18   -0.47    3.09   0
   2   4 -17    1.15    2.94   0
   2   4 -16   -0.24    2.71   0
   0  -8 -30    6.63    3.14   0
   1 -10 -20   -1.51    3.71   0
   1  -9 -24    1.71    3.75   0
   1  -6 -29   31.49    3.66   0
   1  -2 -31    2.71    3.02   0
   1  -1 -31    1.31    3.03   0
   1   3 -29   17.96    3.65   0
   1   4 -28   89.42    4.57   0
   2  -6 -21  184.84    5.91   0
   2  -6 -20    2.37    3.55   0
   2  -6 -13  127.32    4.02   0
   2  -5 -23  145.73    5.59   0
   2  -5 -11   82.73    3.18   0
   2  -4 -24   55.01    4.59   0
   2  -3  -9 1851.78    9.97   0
   2  -2 -25   25.41    4.04   0
   2   1 -24    1.94    3.71   0
   2   2 -11   20.20    2.16   0
   2   3 -21  434.21    7.37   0
   2   3 -13  865.86    7.57   0
   1 -10 -19   43.15    4.28   0
   1 -10 -18    4.68    3.55   0
   1  -9 -23   -1.27    4.26   0
   1  -7 -27    0.13    3.95   0
   1  -4 -30   12.32    3.30   0
   1   1 -30   13.10    3.48   0
   1   5 -26   56.55    4.28   0
   2  -6 -19   85.79    4.60   0
   2  -6 -18    9.03    3.58   0
   2  -6 -17   18.98    3.50   0
   2  -6 -16  248.29    5.57   0
   2  -6 -15   14.94    3.11   0
   2  -6 -14   14.88    2.99   0
   2  -5 -12  729.25    7.36   0
   2  -4 -23   87.48    4.87   0
   2  -4 -10   -0.93    1.97   0
   2  -2 -24    7.86    3.81   0
   2  -1 -24   -0.04    3.67   0
   2   0 -24   15.55    3.92   0
   2   1 -23  127.51    5.23   0
   2   1 -10  162.83    3.47   0
   2   2 -22  153.94    5.27   0
   0 -10 -26   42.04    3.80   0
   1  -6 -28   11.29    3.55   0
   1  -5 -29    4.79    3.26   0
   1  -3 -30    1.93    3.17   0
   1  -2 -30   14.61    3.43   0
   1  -1 -30   15.76    3.50   0
   1   0 -30   23.71    3.72   0
   1   3 -28   14.85    3.75   0
   1   4 -27  197.41    5.72   0
   2  -5 -21   60.51    4.46   0
   2  -5 -20  337.33    7.02   0
   2  -5 -13  196.64    4.50   0
   2  -4 -22   51.98    4.44   0
   2  -1 -23  131.33    5.30   0
   2   0 -10 1072.88    7.67   0
   2   1 -22   30.89    4.00   0
   2   1 -11 1367.73    8.80   0
   2   2 -21    3.32    3.55   0
   2   2 -12  219.72    4.11   0
   2  -2 -10  850.08    6.89   0
   2  -1 -10  152.63    3.18   0
  -4 -15 -10   19.10    3.26   0
  -4 -15  -9   15.52    2.45   0
  -4 -14 -14   -0.26    2.59   0
  -4 -10 -21   27.26    2.63   0
  -4  -9 -22   94.07    3.37   0
  -4  -5 -24   -0.66    2.31   0
  -3 -15  -8   14.82    3.26   0
  -3 -12 -18    0.33    2.73   0
  -3 -10 -21    1.60    2.72   0
  -3  -4 -24    9.20    2.98   0
  -2 -14  -9    5.63    3.11   0
  -2 -12 -16    1.48    3.11   0
  -2 -10 -19    0.99    3.14   0
  -2  -9 -20  252.71    5.70   0
  -1 -12 -10    2.39    2.79   0
  -1 -12  -9    0.49    2.69   0
  -1 -10 -15  225.87    5.21   0
   0  -8  -9 1950.66   10.05   0
  -4 -13 -17    4.85    2.62   0
  -4  -6 -24    3.43    1.90   0
  -4  -6 -24    0.34    1.23   0
  -3 -15 -10   67.85    4.12   0
  -3 -15  -9  145.68    4.47   0
  -3 -14 -14    4.08    3.03   0
  -3 -11 -20   28.82    3.21   0
  -3  -9 -22   26.07    2.98   0
  -3  -8 -23   -0.94    2.67   0
  -3  -6 -24    1.14    3.17   0
  -3  -5 -24  163.55    4.41   0
  -2 -13 -14    7.32    3.19   0
  -1 -12 -11   24.47    3.20   0
  -1 -11 -14  230.23    5.42   0
  -1  -9 -17   54.86    3.60   0
  -1  -8 -18   33.49    3.23   0
  -1  -7 -19   10.05    3.00   0
  -1  -4 -20   23.55    2.93   0
   0  -8 -10    7.73    1.52   0
   0  -6 -13 1589.84    9.38   0
   0  -4 -14  568.05    5.44   0
  -3 -15 -11   69.95    4.12   0
  -3 -14 -15    9.63    3.35   0
  -3 -13 -17  146.49    4.43   0
  -2 -14 -11    8.00    3.35   0
  -2 -13 -15    4.20    3.16   0
  -2 -12 -17   30.20    3.59   0
  -2 -10 -20  102.28    4.44   0
  -2  -9 -21   14.28    3.38   0
  -2  -3 -23  182.51    4.64   0
  -1 -12 -12   52.24    3.63   0
  -1  -6 -20    1.02    2.78   0
  -1  -2 -20   82.56    3.29   0
  -4 -15 -12    7.64    2.77   0
  -4 -13 -18   18.57    2.67   0
  -4 -10 -22   14.88    2.38   0
  -4  -9 -23    2.06    2.32   0
  -3 -15 -12   -0.72    3.33   0
  -3 -11 -21    9.99    2.74   0
  -3 -10 -22   -1.01    2.69   0
  -2 -14 -12   26.26    3.48   0
  -2 -11 -19   53.82    3.81   0
  -2  -8 -22   -1.14    3.14   0
  -2  -6 -23   39.44    3.57   0
  -1 -13  -8    1.70    3.49   0
  -1 -13  -7  211.19    4.93   0
  -1 -13  -5   55.30    3.80   0
  -1 -11 -15  136.41    4.66   0
  -1 -10 -17  420.03    7.01   0
  -1  -9 -18   49.73    3.65   0
  -1  -8 -19  116.03    4.42   0
   0  -8 -12   16.20    2.33   0
   0  -4 -15   62.16    2.56   0
  -4 -15 -13    9.73    2.86   0
  -4 -14 -16    1.96    2.51   0
  -4 -12 -20    5.40    2.41   0
  -4  -8 -24   -0.34    2.09   0
  -3 -14 -16    2.53    2.78   0
  -3 -13 -18   28.24    3.05   0
  -3  -9 -23    8.74    2.76   0
  -2 -14 -13   20.63    3.45   0
  -2 -13 -16    9.18    3.22   0
  -2 -12 -18   15.91    3.37   0
  -2 -10 -21   81.91    4.18   0
  -1 -13 -10   12.64    3.74   0
  -1 -13  -4    3.23    2.69   0
  -1 -11 -16   19.35    3.45   0
  -1  -7 -20   32.75    3.36   0
  -1  -5 -21    3.44    3.00   0
  -1  -4 -21    2.79    2.83   0
  -1  -3 -21   14.13    3.23   0
   0  -6 -15  210.70    4.23   0
   0  -2 -15   10.57    1.81   0
  -4  -6 -25    4.02    2.24   0
  -3  -6 -25    1.40    3.15   0
  -2 -15  -8    2.25    3.33   0
  -2 -15  -7  109.36    4.32   0
  -2 -15  -6   -2.72    3.20   0
  -2 -14 -14   11.28    3.36   0
  -2 -11 -20   92.27    4.33   0
  -2  -4 -24   53.74    4.18   0
  -1 -13 -11    2.68    3.22   0
  -1 -12 -14  221.31    5.51   0
  -1 -10 -18    6.33    3.35   0
  -1  -8 -20   34.87    3.55   0
  -1  -6 -21    3.55    3.15   0
  -1  -2 -21  152.65    4.32   0
   0 -10  -9 1081.06    8.74   0
   0 -10  -8   42.14    2.72   0
   0 -10  -7  187.00    3.90   0
   0 -10  -5   -0.76    2.03   0
   0 -10  -4   65.40    2.65   0
   0  -8 -14   13.85    2.63   0
   0  -4 -16  155.60    3.57   0
  -3 -15 -14    7.91    3.06   0
  -3 -14 -17    2.95    2.73   0
  -3 -13 -19   27.22    3.11   0
  -3 -11 -22    9.56    2.74   0
  -3 -10 -23   -2.91    2.64   0
  -3  -7 -25   17.31    3.26   0
  -2 -15 -10   22.76    3.63   0
  -2 -14 -15    2.33    3.13   0
  -2 -13 -17   10.64    3.24   0
  -2  -8 -23   22.40    3.34   0
  -2  -6 -24   17.14    3.48   0
  -1 -13 -12    2.57    3.29   0
  -1 -12 -15   27.13    3.59   0
  -1  -7 -21    4.24    3.22   0
   0 -10 -11  400.25    5.98   0
   0 -10 -10  225.50    4.63   0
   0 -10  -3  157.01    3.33   0
   0  -6 -16  176.91    4.18   0
   0  -2 -16  122.28    3.03   0
  -3 -16  -9    8.90    3.53   0
  -3 -12 -21    8.32    2.76   0
  -3  -9 -24   74.03    3.54   0
  -2 -15 -11  181.96    5.27   0
  -2 -13 -18   -2.75    3.01   0
  -2 -10 -22    0.24    3.18   0
  -2  -9 -23   10.72    3.21   0
  -1 -13 -13   12.02    3.60   0
   0 -10 -12  479.27    6.72   0
   0 -10  -2  539.27    5.38   0
   0  -8 -15  148.92    4.21   0
  -3 -16 -11   15.20    3.41   0
  -3 -16 -10   -1.26    2.97   0
  -3 -13 -20   -3.07    2.70   0
  -3  -8 -25   18.49    2.96   0
  -2 -14 -16    0.81    3.18   0
  -2 -12 -20   49.03    3.85   0
  -1 -14  -8  128.86    4.62   0
  -1 -13 -14    3.74    3.45   0
   0 -10 -13  714.54    8.23   0
   0  -8 -16    3.42    2.81   0
   0  -6 -17  570.33    6.66   0
  -3 -15 -16    2.62    2.77   0
  -3 -12 -22    1.15    2.81   0
  -3 -11 -23   22.82    2.94   0
  -3 -10 -24    0.49    2.63   0
  -3  -6 -26    0.35    2.99   0
  -2 -13 -19  148.08    4.86   0
  -2  -6 -25   -0.68    3.59   0
  -2  -5 -25    1.41    3.23   0
  -1 -13 -15  129.55    4.96   0
  -1 -12 -17  240.81    6.01   0
  -1 -10 -20    1.44    3.41   0
  -1  -9 -21   -0.61    3.34   0
   0 -10 -14   79.08    3.92   0
   0  -6 -18   10.31    2.76   0
   0  -2 -17    6.58    2.10   0
  -3 -16 -13   17.65    3.29   0
  -3  -7 -26  186.62    4.59   0
  -2 -14 -17    1.15    2.98   0
  -2 -12 -21   13.20    3.17   0
  -2 -11 -22   75.34    4.04   0
  -2 -10 -23   43.02    3.57   0
  -2  -7 -25   -0.41    3.57   0
  -1 -11 -19   -0.66    3.16   0
  -1  -8 -22    4.03    3.41   0
  -1  -5 -23    1.94    3.21   0
  -1  -4 -23   30.73    3.89   0
   0  -8 -17  776.58    8.73   0
  -2 -16  -8   21.68    3.65   0
  -2 -15 -15   13.69    3.36   0
  -2 -13 -20   47.69    3.65   0
  -1 -14 -13    6.63    3.51   0
  -1 -13 -16   -2.14    3.42   0
  -1 -12 -18  114.67    4.91   0
  -1 -11 -20    1.91    3.34   0
  -1 -10 -21    2.83    3.36   0
   0 -10 -15   47.61    3.67   0
   0  -2 -18  748.06    6.81   0
  -3 -16 -14   -0.16    2.23   0
  -3 -16 -14   -0.01    1.47   0
  -3 -14 -20    3.45    2.43   0
  -3 -12 -23    2.47    2.35   0
  -3  -8 -26   -0.46    2.62   0
  -2 -16 -11   16.68    3.64   0
  -2 -16 -10   95.40    4.39   0
  -2 -15 -16    2.51    3.08   0
  -2 -10 -24    7.01    3.51   0
  -1 -14 -14  200.65    5.81   0
  -1 -13 -17   85.08    4.68   0
  -1  -9 -22    2.79    3.38   0
   0 -12 -11  337.97    6.38   0
   0 -12  -9  403.87    6.48   0
   0 -12  -7    6.65    2.91   0
   0  -8 -18   51.38    3.10   0
   0  -6 -19  490.68    6.97   0
  -3 -16 -15   -1.06    2.60   0
  -3 -15 -18    1.71    2.58   0
  -3 -10 -25   -0.79    2.36   0
  -2 -16 -12    5.81    3.40   0
  -2 -14 -19    4.14    2.98   0
  -2 -12 -22    4.96    2.96   0
  -2  -9 -25   -0.53    3.00   0
  -2  -6 -26    6.73    3.36   0
  -2  -5 -26    3.48    3.32   0
  -1 -15  -8   52.54    4.21   0
  -1 -14 -15    1.89    3.53   0
  -1 -10 -22   -2.65    3.22   0
  -1  -5 -24   57.90    4.48   0
   0 -12 -12  263.27    5.96   0
   0 -12  -5  126.71    3.95   0
   0 -12  -4   53.89    3.49   0
   0 -10 -17  148.13    5.13   0
   0  -8 -19  122.48    4.76   0
  -3  -9 -26  112.84    3.73   0
  -2 -16 -13   20.07    3.46   0
  -2 -15 -17   12.58    3.19   0
  -2  -7 -26    1.11    3.19   0
  -1 -15 -10   16.40    3.85   0
  -1 -15  -6   -1.14    3.52   0
  -1 -14 -16  179.42    5.55   0
  -1 -13 -18   37.82    4.00   0
  -1 -12 -20   -1.85    3.49   0
  -1 -11 -21    3.56    3.38   0
  -1  -9 -23    0.20    3.45   0
  -1  -7 -24  144.95    5.16   0
  -1  -6 -24   46.89    3.94   0
   0 -12 -13  289.04    6.34   0
   0  -6 -20    3.68    3.19   0
   0  -4 -20  334.72    5.77   0
   0  -2 -19  394.89    5.45   0
  -2 -16 -14   13.68    3.37   0
  -2 -14 -20    8.15    3.00   0
  -2 -12 -23   11.18    3.09   0
  -2 -11 -24   25.17    3.26   0
  -2 -10 -25   -0.16    3.27   0
  -2  -8 -26    3.81    3.18   0
  -1 -15 -13   28.50    3.89   0
  -1 -13 -19   18.39    3.61   0
  -1  -8 -24    1.86    3.50   0
   0 -12 -14  111.19    4.90   0
   0 -12  -3    9.89    2.71   0
   0 -10 -18  216.21    5.83   0
   0  -8 -20   23.77    3.73   0
  -2 -15 -18    2.65    2.90   0
  -2 -13 -22   14.57    3.07   0
  -1 -15 -14    9.12    3.65   0
  -1 -14 -17    5.13    3.52   0
  -1 -12 -21   12.37    3.54   0
  -1 -11 -22   18.26    3.66   0
  -1 -10 -23   30.12    3.82   0
   0 -12 -15   34.30    4.01   0
   0  -6 -21  645.26    8.33   0
   0  -4 -21   69.14    3.77   0
   1  -7  -9    1.16    1.95   0
   1  -7  -8  135.77    3.32   0
   1  -6 -11    5.17    2.06   0
   1  -6  -8    8.00    1.46   0
   1  -5 -11  175.30    3.60   0
  -2 -16 -16   -0.16    2.88   0
  -2 -15 -19   54.78    3.85   0
  -2 -14 -21    3.49    2.78   0
  -2  -9 -26   -1.73    3.01   0
  -1 -15 -15   70.59    4.37   0
  -1 -14 -18   74.50    4.41   0
  -1 -13 -20   16.08    3.59   0
  -1  -9 -24    0.39    3.33   0
  -1  -7 -25   27.83    3.79   0
  -1  -6 -25  189.38    5.44   0
  -1  -5 -25   38.16    3.89   0
  -1  -4 -25  168.32    5.52   0
   0  -8 -21  815.54    9.89   0
   1  -8 -10   20.22    2.49   0
   1  -8  -9   91.17    3.22   0
   1  -8  -8   55.14    2.77   0
   1  -7 -12  170.45    4.12   0
   1  -7  -7    9.58    1.51   0
   1  -6 -12   29.23    2.53   0
   1  -5 -12   30.01    2.36   0
   1  -4 -12   33.09    2.33   0
  -2 -13 -23   38.66    3.17   0
  -2 -12 -24   -3.76    2.76   0
  -2 -11 -25   -1.70    2.84   0
  -2  -7 -27    3.73    3.12   0
  -1 -15 -16    6.13    3.39   0
  -1 -12 -22   -1.09    3.13   0
  -1 -11 -23   15.25    3.63   0
  -1 -10 -24  100.94    4.55   0
   0 -12 -17    3.93    3.70   0
   1  -8 -11  116.72    3.74   0
   1  -8  -7  218.67    4.07   0
   1  -8  -6  197.15    3.86   0
   1  -7 -13   -0.04    2.43   0
   1  -6 -14   64.27    3.20   0
   1  -6 -13  655.93    6.75   0
   1  -5 -13   10.87    1.72   0
   1  -4 -13  619.14    6.19   0
  -2 -17 -12    5.21    3.21   0
  -2 -15 -20   -0.98    3.05   0
  -2  -8 -27    3.19    2.98   0
  -1 -16 -11    6.63    3.76   0
  -1 -16 -10   79.21    4.49   0
  -1 -16  -9   -1.69    3.60   0
  -1 -16  -8   49.15    4.20   0
  -1 -14 -19   30.73    3.81   0
  -1  -9 -25   28.03    3.69   0
   0 -14  -9  161.75    5.38   0
   0  -4 -22  687.74    8.26   0
   0  -2 -21  279.12    5.42   0
   1  -9 -11    5.54    2.73   0
   1  -9 -10    0.47    2.52   0
   1  -9  -9   14.57    2.57   0
   1  -9  -7   12.90    2.38   0
   1  -8  -5 5341.53   16.50   0
   1  -7 -14  457.44    6.45   0
   1  -6 -15 1099.46    9.41   0
   1  -5 -14  279.93    4.53   0
   1  -4 -14  757.44    7.01   0
  -2 -16 -18   16.50    3.23   0
  -2  -9 -27    3.50    2.77   0
  -1 -16 -13   15.41    3.81   0
  -1 -15 -17   21.50    3.67   0
  -1  -7 -26   44.89    4.39   0
  -1  -6 -26   28.17    3.88   0
   0 -14  -7   19.73    3.78   0
   0 -14  -6    0.18    3.95   0
   0 -12 -18  108.32    5.09   0
   1  -9 -13   15.65    3.14   0
   1  -9 -12    3.83    2.08   0
   1  -9  -6  123.69    3.48   0
   1  -8 -14   14.38    2.97   0
   1  -7 -15    1.68    2.80   0
   1  -5 -15  191.70    4.31   0
   1  -4 -15  465.32    5.87   0
   1  -3 -13  273.17    4.14   0
  -2 -17 -14    0.46    2.96   0
  -2 -13 -24    2.31    2.59   0
  -2 -12 -25   -0.55    2.58   0
  -2 -11 -26   -0.52    2.65   0
  -1 -15 -18    0.21    3.34   0
  -1 -14 -20    2.22    3.16   0
  -1 -13 -22   -1.98    3.18   0
  -1 -12 -23   11.28    3.32   0
  -1 -11 -24   28.43    3.53   0
  -1  -8 -26    5.73    3.51   0
   0 -14 -14  134.26    5.36   0
   0 -14 -13   -0.54    3.57   0
   0 -14  -5    0.49    3.86   0
   0  -6 -23  746.85    9.25   0
   1 -10 -11    2.32    2.98   0
   1 -10 -10   29.00    3.19   0
   1 -10  -8  140.12    4.12   0
   1 -10  -7  503.53    6.43   0
   1  -8 -15  724.58    8.29   0
   1  -6 -16   20.46    2.97   0
   1  -3 -14  372.10    4.88   0
  -2 -17 -15   -0.59    2.98   0
  -2 -10 -27    0.87    2.54   0
   0 -14 -15   27.30    4.17   0
   0 -10 -22   60.42    4.56   0
   0  -4 -23  403.19    6.80   0
   1 -10 -14  423.61    7.27   0
   1  -8 -16    0.19    3.05   0
   1  -7 -17    1.44    3.22   0
   1  -6 -17  856.65    8.97   0
  -2 -17 -16   -0.09    2.66   0
  -2  -8 -28    0.45    2.86   0
  -1 -16 -16  101.97    4.44   0
  -1 -15 -19   38.10    3.75   0
  -1 -14 -21   20.24    3.35   0
  -1 -12 -24   74.65    4.08   0
  -1 -11 -25    8.45    3.33   0
   0 -14 -16   29.70    4.16   0
   0  -6 -24  260.78    6.59   0
   1 -11 -12   39.16    3.87   0
   1 -11 -11   19.14    3.51   0
   1 -11 -10   -0.20    3.11   0
   1 -11  -9   24.29    3.37   0
   1 -11  -8   50.79    3.54   0
   1 -10 -15  234.19    6.02   0
   1  -8 -17  653.11    8.65   0
  -1 -16 -17   -1.99    3.24   0
  -1 -15 -20    2.18    3.42   0
  -1 -13 -23    2.12    2.91   0
  -1 -10 -26   36.97    3.69   0
  -1  -8 -27  151.05    5.24   0
  -1  -7 -27   -2.23    3.46   0
  -1  -6 -27  168.77    5.12   0
   0 -14 -17    2.48    3.61   0
   0 -12 -21  129.58    5.16   0
   0  -8 -24   33.67    4.12   0
   1 -11 -14  214.56    5.91   0
   1 -11 -13  123.02    5.00   0
   1 -10  -4  254.52    4.57   0
   1  -9  -3   71.97    2.77   0
   1  -8 -18   33.16    3.94   0
   1  -7 -18   27.20    3.63   0
   1  -5 -18  159.03    4.64   0
   1  -2 -15  349.45    4.80   0
  -1 -17 -12    5.34    3.54   0
  -1 -17 -11    0.72    3.47   0
  -1 -17 -10    1.21    3.56   0
  -1 -14 -22    7.23    3.10   0
   0 -14 -18  114.72    5.04   0
   0  -4 -24   48.58    4.08   0
   1 -12 -11   26.79    3.83   0
   1 -12 -10    3.62    3.28   0
   1 -11 -15  133.56    5.25   0
   1 -11  -6  364.67    5.83   0
   1 -10 -17  432.91    7.93   0
   1  -9 -18   47.99    4.20   0
   1  -7 -19    6.17    3.43   0
   1  -5 -19   -1.01    3.12   0
   1  -2 -16 1129.70    8.35   0
  -1 -17 -14   10.90    3.47   0
  -1 -17 -13    7.63    3.41   0
  -1 -16 -18   23.08    3.34   0
  -1 -13 -24    0.61    2.99   0
  -1 -12 -25   46.64    3.64   0
  -1 -11 -26   20.89    3.36   0
  -1  -9 -27    4.67    3.24   0
   0 -12 -22   40.94    4.15   0
   0  -6 -25    3.22    3.76   0
   1 -12 -13  123.07    5.21   0
   1 -12  -9    2.68    3.32   0
   1 -12  -7  192.13    5.51   0
   1 -11 -16   15.81    3.95   0
   1 -10 -18    2.92    3.67   0
   1  -8 -19  116.04    4.99   0
   1  -3 -18  222.36    4.83   0
  -1 -17 -15   10.63    3.34   0
  -1 -16 -19    1.97    3.05   0
   0 -14 -19   -2.49    3.49   0
   0 -10 -24   14.24    3.70   0
   1 -11 -17   42.32    4.49   0
   1 -11  -4  155.87    4.13   0
   1  -8 -20   25.59    4.06   0
   1  -7 -20   39.48    4.07   0
   1  -6 -20    1.79    3.49   0
   1  -1 -15  412.44    4.93   0
  -1 -17 -16   12.00    3.24   0
  -1  -8 -28    1.40    3.21   0
  -1  -7 -28   40.76    3.72   0
   0 -16 -12   86.97    5.20   0
   0 -16 -11    3.81    3.88   0
   0 -16 -10  236.61    6.14   0
   0 -16  -9   -0.36    4.52   0
   0 -14 -20  300.59    6.70   0
   0 -12 -23   48.77    4.08   0
   0  -4 -25   38.33    4.05   0
   1 -13 -12    2.85    3.72   0
   1 -13 -10   10.11    3.83   0
   1 -12  -5  295.42    5.89   0
   1 -10  -2   28.16    2.53   0
   1  -7 -21   -0.65    3.59   0
   1  -6 -21    3.73    4.20   0
   1  -4 -20   24.71    3.51   0
   1  -3 -19   43.36    3.39   0
  -1 -16 -20   13.75    3.11   0
  -1 -15 -22    2.92    2.66   0
  -1 -13 -25   12.58    2.80   0
  -1 -11 -27    3.89    2.80   0
  -1  -9 -28   21.17    3.28   0
   0 -16 -13    0.84    3.81   0
   0 -16  -8   45.07    4.38   0
   0 -10 -25   65.31    4.42   0
   0  -6 -26    6.51    3.90   0
   1 -13 -14    2.91    3.92   0
   1 -13  -8    3.49    3.59   0
   1 -12 -17  239.49    6.69   0
   1 -11 -19   -3.47    3.52   0
   1 -11  -3   68.32    3.28   0
   1 -10 -20    3.20    3.81   0
   1  -5 -21    5.19    3.49   0
   1  -2 -18 1248.01    9.35   0
   1  -1 -16    6.50    2.20   0
   0 -14 -21   19.43    3.72   0
   0  -8 -26   15.45    3.60   0
   1 -12 -18  111.48    5.38   0
   1 -12  -4  444.71    6.38   0
   1  -9 -21   -0.00    3.67   0
   1  -4 -21    5.88    3.38   0
   1  -3 -20    6.65    3.14   0
   1  -2 -19  276.81    5.51   0
   0 -16 -16   -2.98    3.45   0
   0 -12 -24   31.86    3.66   0
   1 -13 -16    2.50    3.73   0
   1 -13  -6   50.52    4.05   0
   1 -11 -20   -1.11    3.85   0
   1 -11  -2  277.26    4.75   0
   1 -10 -21    4.06    3.87   0
   1  -9 -22    3.63    3.81   0
   1  -8 -22    2.25    3.82   0
   0 -16 -17    1.09    3.39   0
   0 -14 -22   39.00    3.71   0
   0 -10 -26   46.93    4.02   0
   0  -6 -27   14.08    4.22   0
   1 -14 -14  197.11    6.22   0
   1 -14 -10   51.06    4.44   0
   1 -14  -9    9.74    3.92   0
   1 -14  -8  124.47    5.53   0
   1 -13 -17   83.81    4.94   0
   1  -7 -23    3.33    3.86   0
   1  -4 -22    3.35    3.50   0
   1  -1 -18    1.33    2.49   0
   0 -16 -18   15.21    3.53   0
   0 -12 -25   -2.63    3.26   0
   0  -8 -27    6.01    3.59   0
   1 -14 -15    3.53    3.97   0
   1 -14  -7   47.63    4.35   0
   1 -13 -18   36.36    4.23   0
   1 -13  -4    2.48    3.85   0
   1 -10 -22    3.04    3.74   0
   1  -9 -23   -1.28    3.61   0
   1  -5 -23    3.11    3.66   0
   0 -16 -19   28.42    3.90   0
   1 -14 -17    5.67    3.77   0
   1 -14  -6  329.53    6.56   0
   1 -12 -21    9.97    3.73   0
   1 -11 -22   11.91    3.89   0
   1 -10 -23   27.84    4.04   0
   1  -3 -22   60.14    4.08   0
   1  -1 -19   77.40    3.52   0
   2  -8 -12   27.36    3.53   0
   2  -8 -10   17.83    3.08   0
   2  -7 -14  484.72    7.40   0
   2  -7 -13    3.51    3.00   0
   2  -7 -12  713.13    8.28   0
   2  -7  -9   -1.49    2.46   0
   1 -15 -11    9.10    4.08   0
   1 -15 -10   16.83    4.16   0
   1  -9 -24    1.23    4.39   0
   1  -8 -24    0.48    3.79   0
   1  -6 -24   42.70    4.25   0
   1  -4 -23   27.87    3.94   0
   2  -9 -10  669.25    8.34   0
   2  -9  -9   58.86    3.73   0
   2  -8 -14   78.96    3.68   0
   2  -8  -8  130.00    4.06   0
   2  -7 -15    5.05    3.40   0
   2  -7  -8  816.87    7.88   0
   2  -6 -15   15.43    3.31   0
   2  -6 -14   18.37    3.13   0
   2  -6  -8   63.96    3.02   0
   2  -5 -14  135.98    4.23   0
   2  -5 -13  187.14    4.62   0
   0 -16 -20   97.67    4.21   0
   0 -14 -24   11.26    2.90   0
   0 -12 -26   15.57    3.10   0
   0  -8 -28   -0.37    3.39   0
   1 -15 -15   71.37    4.69   0
   1 -15 -14    7.86    3.84   0
   1 -15  -9   48.20    4.59   0
   1 -14  -5   37.70    3.98   0
   1 -12 -22   -2.95    3.60   0
   1 -11 -23   10.62    3.84   0
   1  -5 -24   63.62    4.63   0
   2 -10 -14   15.43    3.88   0
   2 -10 -12   17.54    3.75   0
   2 -10 -10    4.62    3.37   0
   2  -9 -16    2.66    3.65   0
   2  -9  -8  396.51    6.37   0
   2  -8 -16    6.82    3.61   0
   2  -8  -7  578.39    6.93   0
   2  -7 -17   -0.36    3.40   0
   2  -7  -7  130.21    3.72   0
   2  -6  -7  156.79    3.76   0
   2  -5 -15  107.45    4.15   0
   2  -4 -13   66.74    3.21   0
   1 -15 -16    5.07    3.71   0
   1 -14 -19   32.90    3.95   0
   1 -10 -24   94.52    4.76   0
   1  -7 -25   22.59    4.04   0
   1  -6 -25  185.83    6.15   0
   1  -3 -23   86.04    4.39   0
   2 -10 -15    1.13    3.70   0
   2 -10  -8   71.30    4.05   0
   2  -9 -17   67.02    4.64   0
   2  -9  -7   24.06    3.07   0
   2  -8 -17   26.36    3.97   0
   2  -7  -6  463.40    5.84   0
   2  -6 -17   18.59    3.71   0
   2  -6  -6    1.55    2.08   0
   2  -5 -16   17.24    3.26   0
   2  -5  -7  458.72    5.52   0
   2  -4 -15   70.21    3.60   0
   2  -4 -14    8.17    2.70   0
   2  -4 -10    0.36    1.56   0
   2  -4  -9  428.99    5.38   0
   0 -10 -28   -0.91    3.15   0
   1 -15 -17   16.70    3.76   0
   1 -15  -6   -4.13    4.50   0
   1 -13 -22    0.38    3.39   0
   1 -12 -23    8.40    3.55   0
   1 -11 -24   23.11    3.87   0
   1  -9 -25   26.61    4.03   0
   1  -5 -25   36.71    4.28   0
   2 -11 -15    5.77    3.98   0
   2 -11 -14   10.06    3.81   0
   2 -11  -9   29.77    4.01   0
   2 -10  -7    5.80    3.08   0
   2  -9 -18  123.32    5.45   0
   2  -9  -6   85.92    3.66   0
   2  -8 -18    4.55    2.74   0
   2  -7  -5  294.13    4.73   0
   2  -5 -17   84.84    4.19   0
   2  -4 -16    1.62    2.88   0
   2  -4  -8  512.25    5.67   0
   1 -16 -13   17.11    4.08   0
   1 -16 -12  107.07    5.14   0
   1 -16 -11    6.57    4.15   0
   1 -16 -10   86.79    5.46   0
   1 -15 -18    1.29    3.41   0
   1 -14 -21   21.78    3.58   0
   1 -10 -25   85.11    4.65   0
   2 -12 -13   41.52    4.53   0
   2 -12 -12    1.60    3.88   0
   2 -12 -11    8.85    3.90   0
   2 -11 -17   52.52    4.64   0
   2 -11 -16    5.53    3.93   0
   2 -11  -7  314.25    6.27   0
   2 -10 -18    7.70    4.09   0
   2 -10  -6  125.68    4.32   0
   2  -9 -19    0.82    3.92   0
   2  -9  -5   18.06    2.82   0
   2  -8 -19   27.23    4.18   0
   2  -8  -5  318.84    5.11   0
   2  -7 -19   12.49    3.84   0
   2  -6 -19   89.89    4.80   0
   2  -6  -5  405.23    5.17   0
   2  -5 -18  220.22    5.69   0
   2  -5  -6    1.87    1.55   0
   2  -4 -17    2.50    3.11   0
   2  -3 -15   23.81    2.93   0
   2  -3 -14  177.63    4.28   0
   2  -3 -10 1019.54    7.83   0
   2  -3  -9 1846.28   10.11   0
   0 -18 -14    2.66    3.52   0
   0  -8 -29   33.90    3.51   0
   1 -16  -9   -0.17    4.00   0
   1 -15 -19   39.98    3.98   0
   1 -13 -23    2.74    3.33   0
   1 -12 -24   73.35    4.33   0
   1 -11 -25    8.52    3.54   0
   1  -8 -26    6.18    3.85   0
   1  -7 -26   44.31    4.32   0
   1  -6 -26   30.71    4.15   0
   2 -12 -16   -0.13    3.89   0
   2 -12 -15   10.07    3.99   0
   2 -12  -9  295.13    6.74   0
   2 -10 -19    0.32    3.90   0
   2  -9 -20  252.28    6.78   0
   2  -8  -4  205.97    4.29   0
   2  -5 -19  112.42    4.88   0
   0 -18 -15    1.20    3.13   0
   1 -16 -17    0.56    3.78   0
   1 -16  -8   49.26    4.44   0
   1 -15 -20    0.13    3.36   0
   1 -14 -22    6.11    3.42   0
   1 -10 -26   39.74    3.88   0
   1  -5 -26   60.70    4.48   0
   2 -12 -17   26.23    4.27   0
   2 -10 -20   82.98    5.06   0
   2  -8 -21  117.21    5.37   0
   2  -6  -4  270.00    4.31   0
   2  -3 -17  123.46    4.33   0
   1 -16 -18   22.40    3.97   0
   1 -13 -24   -0.40    3.00   0
   1 -12 -25   42.84    3.80   0
   1  -8 -27  154.81    5.52   0
   2 -13 -15    3.05    4.03   0
   2 -13 -14    4.90    4.00   0
   2 -12 -18   18.48    4.18   0
   2 -11  -5   19.75    3.47   0
   2 -10  -4    2.37    2.90   0
   2  -9 -21   18.29    4.24   0
   2  -7  -3   -2.62    2.15   0
   2  -6 -21  209.60    6.12   0
   2  -2 -10  881.06    7.08   0
   1 -15 -21    8.33    3.17   0
   1 -11 -26   22.09    3.49   0
   1  -9 -27    1.53    3.38   0
   1  -7 -27   -0.17    3.49   0
   1  -6 -27  173.82    5.42   0
   2 -13 -17    8.07    4.00   0
   2 -12  -6   17.72    3.69   0
   2 -11 -20   90.76    4.92   0
   2 -10 -21   85.80    4.88   0
   2  -9 -22  231.96    6.47   0
   2  -9  -3   42.77    3.04   0
   2  -8 -22    2.48    3.98   0
   2  -7 -22  346.23    7.34   0
   2  -2 -16    1.01    2.84   0
   1 -17 -14   10.30    3.65   0
   1 -17 -13    7.37    3.76   0
   1 -17 -12    2.14    3.80   0
   1 -17 -11    1.82    3.79   0
   1 -16 -19   -1.31    3.14   0
   1 -15 -22    1.92    3.23   0
   2 -14 -14   12.18    4.12   0
   2 -14 -13   22.31    4.16   0
   2 -14 -12   27.67    4.42   0
   2 -12  -5   20.41    3.80   0
   2 -11 -21   45.41    4.37   0
   2 -11  -4  106.60    4.38   0
   2 -10 -22    3.26    3.83   0
   2 -10  -3   63.29    3.49   0
   2  -5 -22  454.79    7.84   0
   2  -4 -21   63.15    4.43   0
   2  -2 -17    4.44    3.02   0
   1 -17 -15    9.76    3.49   0
   1 -16 -20    9.77    3.11   0
   1 -13 -25   14.01    2.95   0
   1 -12 -26   18.39    3.13   0
   1 -11 -27    3.82    3.35   0
   2 -14 -16   -1.14    3.81   0
   2 -14 -15    5.58    3.82   0
   2 -14 -10   68.54    4.82   0
   2 -13  -6    4.40    3.75   0
   2  -9 -23    7.82    3.89   0
   2  -9  -2  491.66    6.04   0
   2  -8  -2    4.82    2.32   0
   2  -6 -23   38.16    4.42   0
   2  -3 -20  315.77    6.32   0
   2  -1 -12    0.92    2.10   0
   1  -9 -28   23.14    3.46   0
   1  -8 -28   -0.43    3.35   0
   1  -7 -28   41.55    3.95   0
   2 -14 -17   -1.96    3.57   0
   2 -13 -20   49.45    4.16   0
   2 -12 -21   11.20    3.57   0
   2 -12  -4   54.97    4.05   0
   2 -11  -3  309.20    5.75   0
   2 -10 -23   45.42    4.21   0
   2 -10  -2   33.51    3.52   0
   2  -4 -22   56.64    4.43   0
   2  -3 -21  475.58    7.74   0
   2  -2 -19  186.54    5.04   0
   1 -10 -28    1.95    2.97   0
   2 -15 -12   31.25    4.34   0
   2 -14 -18    7.29    3.55   0
   2 -13  -5   25.18    3.98   0
   2 -12 -22    4.72    3.47   0
   2 -11 -23  100.22    4.89   0
   2  -9 -24   72.11    4.71   0
   2  -8 -24   -2.00    3.60   0
   2  -6 -24   17.00    4.06   0
   2  -1 -17  156.47    4.27   0
   2 -15 -16    3.62    3.68   0
   2 -15 -15   15.86    3.99   0
   2 -15 -10   23.42    4.37   0
   2 -14 -19    2.17    3.36   0
   2 -14  -6   10.10    4.52   0
   2 -11  -2  276.94    5.39   0
   2  -5 -24   50.62    5.00   0
   2  -3 -22   20.59    3.92   0
   2  -2 -20  116.86    4.58   0
   2  -1 -18   66.67    4.01   0
   2 -15 -17   11.43    3.62   0
   2 -15  -8    1.89    4.62   0
   2 -14 -20   10.02    3.47   0
   2 -13 -22   14.02    3.53   0
   2 -13  -4   18.46    3.82   0
   2 -12 -23    8.67    3.49   0
   2 -11 -24   22.35    3.66   0
   2  -7 -25    1.03    3.85   0
   2  -2 -21    3.85    4.09   0
   3  -9 -13   -2.23    3.83   0
   3  -9 -12  152.24    5.63   0
   3  -8 -15  130.18    5.48   0
   3  -8 -14   29.37    4.26   0
   3  -8 -12    2.63    3.72   0
   3  -8 -11    1.07    3.47   0
   3  -7 -13   21.30    3.88   0
   2 -15 -18    0.24    3.32   0
   2 -14 -21    1.94    3.10   0
   2 -14  -5    2.95    3.87   0
   2 -12  -2  253.25    5.82   0
   2 -10 -25   -1.02    3.37   0
   2  -6 -25    4.45    3.66   0
   2  -4 -24   49.32    4.39   0
   2  -1 -19  573.96    7.21   0
   2   0 -14   37.63    2.66   0
   2   0 -12   37.94    2.53   0
   3 -10 -15   -1.11    3.93   0
   3 -10 -13    0.80    3.92   0
   3 -10 -12   36.72    4.47   0
   3 -10 -11    2.93    3.81   0
   3  -9 -16  371.54    7.97   0
   3  -9 -11   -1.09    2.74   0
   3  -9 -10   30.77    4.04   0
   3  -8 -16   18.74    4.07   0
   3  -8 -10   -1.58    3.23   0
   3  -7 -16  368.65    7.56   0
   3  -7 -10   38.27    3.72   0
   3  -6 -16   36.49    4.16   0
   3  -6 -15    4.69    3.74   0
   3  -6 -14  113.33    4.86   0
   3  -6 -13   16.02    3.48   0
   3  -6 -12    5.39    3.31   0
   2 -16 -14   13.26    3.77   0
   2 -16 -13   17.88    3.93   0
   2 -16 -12    2.44    3.88   0
   2 -16 -11   11.93    4.47   0
   2 -15  -7  113.75    5.22   0
   2 -13  -3   27.05    3.87   0
   2 -12 -24   -1.71    3.09   0
   2 -11 -25   -1.54    3.18   0
   2 -11  -1  367.49    5.78   0
   2  -8   0   25.41    2.46   0
   2  -7 -26    0.43    4.09   0
   2  -5 -25    2.58    3.92   0
   2  -2 -22  160.18    5.53   0
   2   0 -16   36.11    2.95   0
   3 -11 -13   49.53    4.72   0
   3 -10 -10   10.01    3.72   0
   3 -10  -9    7.94    3.84   0
   3  -9 -18   75.81    4.84   0
   3  -9 -17   12.99    4.01   0
   3  -9  -9   55.39    3.51   0
   3  -9  -8  213.04    5.72   0
   3  -8 -18   14.06    4.17   0
   3  -6 -17   -0.08    3.76   0
   3  -6  -9    0.25    2.93   0
   3  -5 -14  720.84    9.06   0
   3  -5 -11   16.14    3.17   0
   2 -16 -10   97.00    4.90   0
   2 -15 -20    2.40    3.11   0
   2 -15  -6   -0.94    4.12   0
   2 -14 -22   32.66    3.46   0
   2 -10 -26   -0.04    3.06   0
   2  -9   0 1964.22   10.70   0
   2  -6 -26    8.52    3.90   0
   3 -11 -17   48.65    4.55   0
   3 -11 -10    8.51    4.03   0
   3 -10 -18    9.16    4.03   0
   3  -9 -19   26.44    4.28   0
   3  -9  -7   34.87    3.95   0
   3  -8 -19    4.22    4.05   0
   3  -8  -7    0.91    3.22   0
   3  -7 -19   13.71    4.05   0
   3  -6  -8    6.77    2.88   0
   3  -5 -17    7.37    3.64   0
   3  -5 -16  350.78    6.99   0
   3  -5 -10    7.67    2.85   0
   3  -4 -14   24.12    3.40   0
   3  -4 -13   -0.87    3.04   0
   3  -4 -12    4.80    2.90   0
   2 -16 -17   -2.18    3.04   0
   2 -16  -9   43.45    4.44   0
   2 -13 -24    4.66    2.99   0
   2 -12 -25   -1.32    2.95   0
   2 -10   0  106.07    3.64   0
   2  -5 -26    3.14    4.19   0
   2  -4 -25    4.83    3.89   0
   3 -12 -16    7.40    3.95   0
   3 -12 -15    1.71    3.95   0
   3 -12 -12   -1.59    3.90   0
   3 -12 -11   12.38    4.16   0
   3 -12 -10   47.71    4.53   0
   3 -11  -8  424.69    7.76   0
   3 -10 -19   -1.04    3.78   0
   3 -10  -7  157.32    5.43   0
   3  -9 -20   22.16    4.08   0
   3  -8 -20    0.65    3.91   0
   3  -8  -6   25.86    3.51   0
   3  -7 -20   66.17    4.83   0
   3  -6  -7   13.55    3.00   0
   3  -5 -18  243.19    6.29   0
   3  -4 -16  112.55    4.84   0
   3  -4 -15    2.53    3.33   0
   3  -4 -11    1.77    2.86   0
   2 -16 -18   10.64    2.53   0
   2 -16 -18    4.38    1.77   0
   2 -11 -26   -0.89    2.80   0
   2  -9 -27    3.11    3.05   0
   2  -8 -27    3.96    3.38   0
   2  -7 -27    5.33    3.56   0
   3 -12 -17   -1.27    3.68   0
   3 -11 -19   31.54    4.15   0
   3 -11  -7  465.60    7.96   0
   3 -10 -20    2.62    3.69   0
   3 -10  -6  114.02    4.81   0
   3  -9  -6 1063.15   10.44   0
   3  -8 -21    6.11    3.72   0
   3  -7  -6 1380.82   10.99   0
   3  -6  -6   11.87    2.81   0
   3  -4 -17  116.98    4.90   0
   3  -4  -9    1.24    2.71   0
   2  -6 -27   36.87    3.97   0
   3 -13 -16   34.01    4.09   0
   3 -13 -13   32.31    4.26   0
   3 -13 -11   14.71    4.31   0
   3 -11 -20   28.38    3.94   0
   3 -10 -21    1.05    3.62   0
   3  -9 -21    4.18    3.65   0
   3  -9  -5  344.89    6.58   0
   3  -8  -5    4.97    3.05   0
   3  -7 -21    2.84    3.80   0
   3  -7  -5   -0.47    2.91   0
   3  -6 -21   25.10    4.24   0
   3  -4 -18   59.84    4.28   0
   3  -4  -8   73.36    3.40   0
   3  -3 -16   93.91    4.54   0
   3  -3 -15  251.59    5.72   0
   2 -17 -15    0.70    3.04   0
   2 -17 -14   -0.44    3.24   0
   2 -17 -12    3.81    3.66   0
   2  -9   1  104.09    3.29   0
   3 -13 -17  128.86    5.18   0
   3 -11 -21    9.14    3.52   0
   3  -8 -22    2.00    3.77   0
   3  -7 -22   47.54    4.45   0
   3  -6  -5    6.47    2.66   0
   3  -5  -6 1791.81   11.66   0
   3  -3 -10   34.96    2.99   0
   3  -3  -9  104.83    3.71   0
   2 -17 -16    0.19    1.59   0
   2  -8 -28   -0.57    3.00   0
   3 -14 -13    2.03    3.77   0
   3 -14 -12    3.94    3.83   0
   3 -12  -6    2.46    3.87   0
   3 -11  -5  255.74    6.26   0
   3 -10 -22   -1.33    3.26   0
   3  -9  -4 1285.22   10.96   0
   3  -8 -23    2.38    4.07   0
   3  -8  -4   -1.67    2.82   0
   3  -7  -4  887.33    8.65   0
   3  -5  -5  484.57    6.35   0
   3  -4 -20    5.43    3.87   0
   3  -3 -18  403.17    7.17   0
   3  -3  -8  253.62    4.83   0
   3  -2 -13    4.80    2.85   0
   3 -14 -16    3.35    3.55   0
   3 -14 -10   43.89    4.55   0
   3 -13  -7  240.98    6.33   0
   3 -12 -21    8.32    3.33   0
   3 -11 -22   12.12    3.52   0
   3 -10 -23   -1.81    3.16   0
   3  -6 -23    2.04    4.36   0
   3  -6  -4   74.39    3.42   0
   3  -5 -22   20.95    4.09   0
   3  -4 -21   -0.29    3.73   0
   3  -3 -19  118.47    4.96   0
   3  -2 -16   13.70    3.47   0
   3  -2 -12   18.15    2.86   0
   3  -2 -11    0.76    2.56   0
   3 -14 -18   12.19    3.40   0
   3 -14  -9   64.38    4.84   0
   3 -13 -20    0.09    3.06   0
   3 -12 -22   -1.00    2.94   0
   3 -12  -5   19.86    3.99   0
   3 -11 -23   19.37    3.73   0
   3 -11  -4  616.48    8.36   0
   3  -8  -3  100.98    3.98   0
   3  -4  -5    0.79    2.34   0
   3  -3 -20   28.59    4.01   0
   3  -3  -7 1095.65    8.69   0
   3  -2 -10    5.55    1.88   0
   3  -2  -9   32.14    2.78   0
   3 -15 -12   -0.99    3.52   0
   3 -14 -19   -0.96    3.06   0
   3 -14  -8   20.05    4.33   0
   3 -10 -24   -0.76    3.18   0
   3 -10  -3    1.19    3.38   0
   3  -7 -24  130.45    5.03   0
   3  -6 -24   -2.36    4.09   0
   3  -6  -3  174.51    4.25   0
   3  -5 -23    7.75    3.88   0
   3  -4 -22    0.03    3.87   0
   3  -3  -6  326.12    5.14   0
   3  -2 -18   -1.69    3.34   0
   3 -15 -17   57.51    4.04   0
   3 -15 -16    1.04    3.24   0
   3 -15 -11   66.77    4.58   0
   3 -14 -20    4.70    2.82   0
   3 -12 -23    0.55    2.84   0
   3 -12  -4   -0.15    3.75   0
   3 -11 -24   18.22    3.42   0
   3 -11  -3  112.44    4.80   0
   3  -8 -25   17.29    3.93   0
   3  -7  -2  549.64    6.70   0
   3  -5  -3  520.34    6.26   0
   3  -4 -23    4.43    4.35   0
   3  -4  -4   96.37    3.34   0
   3  -2 -19   17.68    3.83   0
   3  -1 -15  544.48    7.16   0
   3  -1 -14   13.17    3.10   0
   3  -1 -12  118.00    3.90   0
   3 -15 -18    3.58    2.80   0
   3 -15  -9  135.87    5.28   0
   3 -14  -6   16.06    4.61   0
   3 -10 -25    1.18    3.20   0
   3 -10  -2   -1.49    3.22   0
   3  -7 -25   18.33    3.68   0
   3  -6  -2    0.58    2.40   0
   3  -3 -22   19.48    3.99   0
   3  -2 -20   42.92    4.11   0
   3  -2  -7   61.43    2.97   0
   3  -1 -16  110.39    4.34   0
   3  -1 -10   -2.60    2.29   0
   3 -15  -8   14.12    4.08   0
   3 -12  -3    6.01    3.74   0
   3 -11  -2  119.63    4.71   0
   3  -6 -25    1.04    3.56   0
   3  -4  -3   77.04    3.08   0
   3  -2  -6   84.13    3.14   0
   3  -1 -18   17.97    3.62   0
   4  -9 -14   10.82    4.16   0
   4  -9 -13   36.71    4.48   0
   4  -8 -15    3.63    3.72   0
   4  -8 -14   -0.88    3.85   0
   4  -7 -15    9.76    3.82   0
   4  -7 -14   67.48    4.79   0
   3 -16 -15   -0.40    3.17   0
   3 -16 -14    0.30    3.09   0
   3 -16 -12    4.59    3.69   0
   3  -9 -26  106.60    3.94   0
   3  -9  -1    4.25    3.05   0
   3  -8 -26   -0.24    3.12   0
   3  -8  -1   22.03    3.08   0
   3  -5 -25   71.72    4.37   0
   3  -5  -2  119.32    3.56   0
   3  -4 -24    8.78    3.79   0
   3  -1 -19  221.16    5.48   0
   4 -10 -15   21.25    4.03   0
   4 -10 -14   10.26    3.94   0
   4 -10 -12    3.50    3.89   0
   4 -10 -11   17.16    4.13   0
   4  -9 -17   -0.96    3.61   0
   4  -9 -16    1.63    3.78   0
   4  -9 -11   19.91    4.07   0
   4  -8 -16    1.22    3.73   0
   4  -8 -10   -3.38    3.88   0
   4  -7 -17    0.70    3.77   0
   4  -7 -16    2.75    3.68   0
   4  -7 -10  168.99    5.65   0
   4  -6 -12    2.99    3.64   0
   4  -6 -11   56.16    4.27   0
   3 -16 -11   14.01    3.57   0
   3 -16 -10    0.42    3.85   0
   3 -12  -2    2.29    3.60   0
   3 -10  -1    5.34    3.32   0
   3  -6 -26   -1.60    3.66   0
   3  -6  -1   -0.15    2.40   0
   3  -2 -22   18.46    3.97   0
   3  -2  -5   70.98    2.90   0
   3  -1 -20   24.40    4.24   0
   3   0 -14   78.95    3.69   0
   3   0 -12    9.77    2.64   0
   4 -11 -13   28.76    4.19   0
   4 -11 -11   17.11    4.14   0
   4 -10 -10   59.31    4.66   0
   4 -10  -9   75.10    4.78   0
   4  -9 -18   78.37    4.66   0
   4  -9  -9    6.09    4.09   0
   4  -8 -18    6.96    3.78   0
   4  -8  -8   36.61    4.20   0
   4  -7 -18   71.52    4.82   0
   4  -7  -9   18.65    4.06   0
   4  -6 -17    0.54    3.73   0
   4  -5 -15    3.28    3.83   0
   4  -5 -12  116.16    4.99   0
   3  -5  -1    1.24    2.16   0
   3  -4  -2    9.12    2.30   0
   3  -3  -3  965.02    7.81   0
   3   0 -16   44.06    3.57   0
   4 -12 -15    1.77    3.91   0
   4 -12 -14   11.47    3.57   0
   4 -12 -13   -0.23    3.64   0
   4 -12 -12   57.67    4.38   0
   4 -11 -17    6.63    3.62   0
   4 -11 -10  112.13    5.26   0
   4 -11  -9  106.24    5.19   0
   4 -10 -19   45.80    3.89   0
   4 -10 -18    4.26    3.36   0
   4  -9 -19   -2.58    3.43   0
   4  -9  -8  289.49    6.81   0
   4  -8 -19   50.76    4.26   0
   4  -8  -7   22.24    3.90   0
   4  -7  -8  451.90    7.79   0
   4  -6 -18    6.31    3.88   0
   4  -6  -9  234.88    6.13   0
   4  -6  -8    4.57    3.42   0
   4  -5 -17    2.47    3.85   0
   4  -5 -16   55.31    4.46   0
   4  -5 -11   18.52    2.94   0
   4  -5 -10  443.85    7.67   0
   3  -2  -4   18.56    2.36   0
   3   0 -18   72.21    4.43   0
   4 -12 -17    4.29    3.08   0
   4 -12 -16    2.29    3.29   0
   4 -12 -10   60.20    4.56   0
   4 -11 -19   14.24    3.68   0
   4 -11  -8   41.25    4.35   0
   4 -10 -20   10.98    3.74   0
   4  -9 -20   44.22    3.89   0
   4  -9  -7   -5.47    3.71   0
   4  -8 -20    5.41    3.41   0
   4  -7 -20   89.94    4.74   0
   4  -7  -7    0.64    3.64   0
   4  -6  -7  194.38    5.55   0
   4  -5 -18   18.21    4.06   0
   4  -5  -9   45.96    4.10   0
   4  -4 -16    9.72    3.92   0
   4  -4 -15   23.54    3.98   0
   4  -4 -14   -1.61    3.50   0
   4  -4 -13   14.84    3.73   0
   4 -13 -14   11.19    3.36   0
   4 -13 -13    8.16    3.45   0
   4 -13 -12    0.72    3.97   0
   4 -12 -18   23.71    3.42   0
   4 -12  -9   66.50    4.76   0
   4 -11  -7   13.27    4.00   0
   4  -9  -6   97.83    4.97   0
   4  -8 -21   56.46    4.08   0
   4  -8  -6    2.38    3.55   0
   4  -7 -21    0.91    3.40   0
   4  -7  -6   -3.28    3.49   0
   4  -6 -20   18.52    3.81   0
   4  -5 -19   39.14    4.23   0
   4  -4 -18   12.05    4.50   0
   4  -4 -17   -0.38    3.67   0
   4  -4 -10   42.58    3.93   0
   4  -4  -9  211.39    5.57   0
   3  -4  -1  158.86    3.64   0
   3   0  -8  116.15    3.02   0
   4 -13 -16   -0.54    3.07   0
   4 -13 -15    0.37    3.00   0
   4 -12 -19    8.74    3.07   0
   4 -11 -20    5.67    2.94   0
   4 -10 -21   26.98    3.37   0
   4 -10  -6   56.23    4.44   0
   4  -9  -5    3.44    3.81   0
   4  -8 -22    1.49    3.54   0
   4  -8  -5    7.44    3.64   0
   4  -7  -5    5.45    3.44   0
   4  -6 -21   52.41    4.34   0
   4  -6  -6   97.10    4.53   0
   4  -5  -7  324.41    6.41   0
   4  -4  -8   44.43    3.79   0
   4  -3 -16    2.34    3.63   0
   4  -3 -15   34.43    4.08   0
   4  -3 -11  145.12    4.98   0
   3  -9   1    2.61    2.86   0
   3  -7   1   34.82    2.89   0
   3   1 -15  524.39    6.71   0
   3   1 -14    9.16    2.76   0
   3   1 -13  775.24    7.47   0
   3   1 -12  116.50    3.54   0
   4 -13 -18   15.41    2.89   0
   4 -13 -17    7.91    2.95   0
   4 -13  -9   33.13    4.27   0
   4 -12  -7    8.76    4.08   0
   4 -11 -21   16.65    3.06   0
   4 -10 -22   16.65    2.96   0
   4 -10  -5    4.19    3.90   0
   4  -9 -22   93.39    4.06   0
   4  -7 -22   73.04    4.28   0
   4  -6  -5    0.13    3.33   0
   4  -5 -21   26.91    3.96   0
   4  -5  -6   11.55    3.41   0
   4  -4 -20   51.13    4.75   0
   4  -3 -10  227.47    5.67   0
   4  -3  -9  520.81    7.56   0
   3 -10   1    6.53    3.13   0
   3  -6   1   -0.79    2.33   0
   3  -3  -1  211.73    3.98   0
   3  -1  -4   23.14    2.37   0
   3   1 -16  102.82    3.87   0
   3   1 -11  183.69    4.08   0
   4 -14 -15    6.62    2.91   0
   4 -14 -14   -0.21    3.05   0
   4 -13  -8   62.56    4.45   0
   4 -12  -6   -1.35    3.78   0
   4 -11  -5   -0.05    3.87   0
   4  -9 -23    0.70    3.14   0
   4  -8 -23   35.05    3.52   0
   4  -8  -4   99.09    4.77   0
   4  -7  -4  221.64    5.68   0
   4  -5  -5   59.83    3.92   0
   4  -3  -8  105.06    4.33   0
   4  -2 -14    4.98    3.39   0
   3  -2  -2  337.85    4.74   0
   3   0  -6  325.23    4.45   0
   3   1 -10    1.47    2.14   0
   4 -14 -16    0.19    2.28   0
   4 -14 -16    1.35    1.53   0
   4 -14 -10   63.87    4.12   0
   4 -13  -7   46.12    4.26   0
   4  -6 -23   73.92    4.11   0
   4  -5 -22  104.71    4.69   0
   4  -4 -21  142.91    5.14   0
   4  -3 -19  196.80    5.65   0
   4  -3  -7  267.69    5.65   0
   4  -2 -11  207.26    5.44   0
   4  -2 -10  324.89    6.23   0
   3  -8   2   23.62    3.27   0
   3  -5   1    2.82    2.25   0
   3  -1  -3 1244.82    8.33   0
   4 -12  -5    3.81    3.89   0
   4 -10  -3  240.17    6.39   0
   4  -8 -24   -0.45    3.02   0
   4  -7  -3    3.31    3.38   0
   4  -5  -4   15.11    3.29   0
   4  -4 -22   96.04    4.87   0
   4  -3 -20   31.48    4.10   0
   4  -2 -18   83.97    4.60   0
   4  -2  -9   12.25    3.24   0
   3  -9   2   97.65    3.75   0
   4 -14  -8   37.49    3.92   0
   4 -13  -6    5.08    3.73   0
   4  -6 -24    1.71    3.34   0
   4  -3 -21   84.16    4.52   0
   4  -3  -6    2.61    2.84   0
   4  -2  -8  409.63    6.61   0
   4  -1 -12   -1.70    3.09   0
   3  -6   2    1.97    2.28   0
   3  -4   1  171.76    3.66   0
   3  -2  -1  428.67    5.06   0
   3   0  -4  166.36    3.48   0
   3   1  -7  925.34    7.31   0
   4 -14  -7    1.77    3.56   0
   4 -13  -5    0.22    3.72   0
   4 -12  -4   16.18    3.96   0
   4  -9  -2  132.57    4.98   0
   4  -8  -2    3.10    3.49   0
   4  -7  -2   45.40    3.74   0
   4  -4 -23    9.89    3.80   0
   4  -2 -20   47.85    4.55   0
   4  -2  -7   44.88    3.43   0
   4  -1 -16   15.34    3.67   0
   4  -1 -15   76.78    4.23   0
   4  -1 -11  206.68    5.22   0
   4  -1 -10  129.29    4.45   0
   3   2 -14   29.25    2.86   0
   3   2 -13    4.64    2.52   0
   3   2 -12   15.35    2.47   0
   4 -10  -2    4.86    3.59   0
   4  -6  -2    3.06    3.05   0
   4  -4  -3  187.40    4.82   0
   4  -3 -22   50.88    4.00   0
   4  -2  -6   10.06    2.92   0
   4  -1  -9 1036.92    9.75   0
   3   2 -11    0.55    2.23   0
   3   2 -10    5.08    2.49   0
   4 -15  -9   12.27    2.70   0
   4 -13  -4   -0.40    3.67   0
   4 -12  -3    7.33    3.75   0
   4  -9  -1   32.45    3.81   0
   4  -7  -1    5.19    3.34   0
   4  -6 -25    4.14    2.85   0
   4  -2 -21   26.69    3.79   0
   4  -1  -8   49.94    3.46   0
   5  -9 -14   13.89    3.39   0
   5  -8 -15  129.51    4.83   0
   5  -8 -12   -1.27    3.42   0
   5  -8 -11   15.18    3.65   0
   5  -7 -15    1.71    3.23   0
   5  -7 -13   17.38    3.71   0
   3  -8   3  104.54    3.54   0
   3   2  -9   31.31    2.42   0
   4 -10  -1   74.69    4.36   0
   4  -6  -1  335.36    6.07   0
   4  -4  -2  112.69    4.05   0
   4  -3  -3   54.13    3.27   0
   4  -2  -5    2.73    2.62   0
   4  -1 -19   70.13    4.26   0
   4   0 -14   51.09    3.80   0
   5 -10 -15   32.93    3.34   0
   5 -10 -12    1.54    3.22   0
   5 -10 -11    2.90    3.25   0
   5  -9 -16    5.42    2.99   0
   5  -9 -11    4.51    3.38   0
   5  -9 -10    5.17    3.55   0
   5  -8 -17   82.74    4.01   0
   5  -8 -16    2.78    3.07   0
   5  -8 -10    2.22    3.53   0
   5  -8  -9    3.15    3.47   0
   5  -7 -17   -1.10    3.00   0
   5  -7 -16   21.98    3.56   0
   5  -6 -16   29.25    3.64   0
   5  -6 -15  120.44    4.91   0
   5  -6 -14   10.10    3.63   0
   5  -6 -12   10.00    3.63   0
   3  -4   2    6.17    1.96   0
   3   1  -5 2398.89   10.99   0
   3   2  -8    1.41    2.27   0
   4 -12  -2   66.46    4.29   0
   4  -8   0   22.33    3.41   0
   4  -5  -1  169.12    4.65   0
   4  -1 -20   22.82    3.66   0
   4  -1  -6    9.91    2.77   0
   4   0 -16   50.83    3.92   0
   4   0 -10  646.74    7.78   0
   5 -11 -14   11.57    2.97   0
   5 -11 -13   -1.36    2.99   0
   5 -11 -12    5.07    3.07   0
   5 -10 -10    6.25    3.36   0
   5 -10  -9   26.14    3.73   0
   5  -9 -18    1.95    2.67   0
   5  -9 -17    8.48    2.95   0
   5  -9  -9    4.83    3.48   0
   5  -9  -8    9.45    3.57   0
   5  -8 -18    3.16    3.00   0
   5  -8  -8   -0.48    3.67   0
   5  -7 -18    8.48    3.11   0
   5  -7  -9    8.57    3.66   0
   5  -7  -8    5.73    3.59   0
   5  -6  -9   11.82    3.68   0
   5  -5 -16   10.78    3.38   0
   5  -5 -15    5.06    3.52   0
   5  -5 -14   18.96    3.78   0
   5  -5 -12   20.28    3.69   0
   5  -5 -11   -3.02    3.55   0
   5  -5 -10   31.64    3.86   0
   3   0  -2  211.56    3.70   0
   4  -9   0  842.57    9.02   0
   4  -6   0   14.52    3.09   0
   4  -3  -2  352.13    5.74   0
   4   0  -8  118.26    4.02   0
   5 -11 -16    3.01    2.66   0
   5 -11 -15    5.53    2.71   0
   5 -11 -11    1.93    3.03   0
   5 -10 -18    0.90    2.48   0
   5 -10  -8   -3.44    3.46   0
   5  -9  -7    6.95    3.56   0
   5  -8 -19   27.01    3.11   0
   5  -7 -19    0.56    2.91   0
   5  -6 -18    3.42    3.15   0
   5  -6  -8   -1.04    3.62   0
   5  -5 -17    0.92    3.28   0
   5  -5  -9   11.98    3.87   0
   5  -4 -15  124.98    4.88   0
   5  -4 -13   18.87    3.70   0
   5  -4 -12    2.09    3.39   0
  -1  -4 -30    9.82    2.49   0
  -1  -2 -29   29.15    3.11   0
  -1   1 -26   23.48    3.19   0
   0  -2 -27    6.23    3.06   0
   1 -13 -20   12.30    3.16   0
   1 -11 -23   13.93    3.14   0
   1 -10 -24  102.64    4.17   0
   1  -7 -25   21.63    3.28   0
   1  -3 -24   10.22    3.17   0
   1  -2 -23   20.74    3.17   0
   1   1 -17  516.38    5.77   0
   2  -9 -15   -0.09    2.79   0
   2  -9 -14  215.11    4.56   0
   2  -9 -13   23.29    3.19   0
   2  -8 -16    3.12    2.79   0
   2  -7 -17    0.88    2.73   0
   2  -6 -17   18.83    2.97   0
   2  -5 -16   22.87    2.79   0
   2  -5  -9  371.43    4.18   0
   2  -4 -15   69.04    3.02   0
   2  -4 -14    9.68    2.17   0
   2  -4 -13   69.74    2.70   0
   2  -4 -12  176.52    3.46   0
   2  -4 -11  136.32    3.04   0
   2  -4 -10    1.21    1.58   0
  -2  -3 -30   26.75    2.60   0
  -1  -8 -30    0.69    1.99   0
  -1  -5 -30    2.86    2.41   0
  -1  -1 -28    7.22    2.91   0
  -1   2 -24  175.39    4.38   0
   0 -14 -23    7.77    2.65   0
   0  -4 -28   30.71    3.21   0
   0   2 -21  301.92    5.03   0
   1 -12 -21   10.29    3.47   0
   1  -9 -24    2.17    2.98   0
   1  -1 -21   23.65    3.01   0
   1   1 -16    6.27    1.88   0
   1   1 -15  398.64    4.71   0
   2  -8 -15    9.27    2.69   0
   2  -8 -14   83.38    3.40   0
   2  -8 -13   10.85    2.95   0
   2  -8 -10   16.48    2.16   0
   2  -7  -9    0.50    1.74   0
   2  -6 -16  296.06    5.19   0
   2  -6 -15   13.01    2.54   0
   2  -6  -9  398.53    4.36   0
   2  -5 -15  111.85    3.49   0
   2  -5 -14  127.58    3.46   0
   2  -5 -10  796.85    6.11   0
  -2  -2 -29    8.09    2.87   0
  -1  -6 -30    7.04    2.46   0
   0 -10 -27   65.54    3.23   0
   0  -8 -28   -0.63    2.56   0
   0  -6 -28   -1.56    2.68   0
   0   0 -24  368.13    6.08   0
   0   2 -20  538.54    6.09   0
   1 -11 -22   16.56    3.24   0
   1 -10 -23   31.26    3.43   0
   1  -2 -22  285.39    5.58   0
   1   1 -14  160.65    3.15   0
   1   1 -13  798.66    5.91   0
   2  -7 -14  526.57    6.20   0
   2  -7 -13    1.75    2.27   0
   2  -7 -12  712.19    6.51   0
   2  -7 -11   83.67    2.85   0
   2  -7 -10 1293.52    7.91   0
   2  -6 -10   18.77    2.00   0
  -2  -4 -30    9.47    2.27   0
  -2  -1 -28    2.52    3.11   0
  -1   0 -26  602.00    7.45   0
  -1   2 -23   17.85    3.14   0
   0  -4 -27    0.98    2.92   0
   0  -2 -26   16.18    3.05   0
   1 -12 -20    1.98    3.02   0
   1  -9 -23   -1.89    2.89   0
   1  -7 -24  144.64    4.73   0
   1  -2 -21  147.62    4.24   0
  -1  -4 -29   18.35    2.82   0
  -1  -1 -27  152.99    4.44   0
   0  -8 -27    5.50    2.60   0
   0   2 -19  391.40    5.11   0
   1 -11 -21    0.44    3.03   0
   1 -10 -22   -0.42    3.10   0
   1  -8 -23   90.18    4.17   0
   1  -5 -23    0.39    3.07   0
   1  -3 -22   61.71    3.02   0
   1  -1 -19   78.92    3.30   0
   1   0 -16 1633.61    9.39   0
  -2  -3 -29   64.41    3.16   0
  -1  -7 -29   -0.20    2.39   0
  -1  -6 -29   34.75    2.89   0
  -1  -5 -29    4.52    2.57   0
  -1  -3 -28   18.37    2.96   0
  -1   1 -24   13.12    2.89   0
   0  -6 -27   13.16    3.01   0
   1 -12 -19   55.99    3.60   0
   1  -9 -22    3.13    3.04   0
   1  -7 -23    2.64    2.93   0
   1  -3 -21   18.15    2.89   0
   1  -1 -18   -0.56    2.14   0
  -2  -2 -28   21.65    2.87   0
  -1 -10 -28    3.11    2.23   0
  -1   2 -22  277.09    4.77   0
   0 -14 -21   18.53    3.17   0
   0  -4 -26   13.18    3.02   0
   0   0 -22  743.83    7.64   0
   0   2 -18  774.13    6.60   0
   1 -12 -18  118.83    4.48   0
   1 -11 -20   -2.07    2.93   0
   1  -8 -22    0.20    2.95   0
   1  -6 -22    9.04    2.96   0
   1  -5 -22   36.96    3.31   0
   1   0 -14  929.71    6.57   0
  -2  -1 -27   12.59    2.80   0
  -2   0 -26    1.63    2.75   0
  -1 -11 -27    5.92    2.19   0
   0  -8 -26   13.89    2.93   0
   0  -6 -26    5.34    2.93   0
   0  -2 -24  235.74    5.16   0
   0   2 -17    6.24    1.88   0
   1 -11 -19    0.54    3.35   0
   1  -9 -21    1.77    3.00   0
   1  -3 -20    6.44    2.61   0
   1  -2 -19  273.70    4.60   0
  -2  -8 -29    2.47    1.94   0
  -2  -7 -29    0.46    2.32   0
  -2  -6 -29    6.89    2.50   0
  -2  -3 -28   44.00    3.33   0
  -1 -13 -25   11.21    2.40   0
  -1 -12 -26   18.78    2.49   0
  -1  -8 -28    1.76    2.42   0
  -1  -7 -28   39.26    2.97   0
  -1  -6 -28   12.00    2.70   0
  -1  -5 -28  126.03    4.10   0
  -1  -3 -27   92.69    3.86   0
  -1   1 -23    1.79    2.64   0
  -1   2 -21  156.69    4.09   0
   0 -10 -25   61.88    3.46   0
   0  -4 -25   37.57    3.36   0
   1 -12 -17  234.87    5.03   0
   1  -7 -21    4.34    2.93   0
   1  -6 -21    4.67    2.87   0
   1  -5 -21    0.76    2.61   0
   1  -2 -18 1214.14    8.99   0
   1  -1 -16    7.63    1.88   0
  -1 -10 -27   92.22    3.45   0
  -1   0 -24   28.87    3.01   0
   0 -14 -20  288.69    5.10   0
   0   2 -16  128.71    2.88   0
   1  -5 -20   16.58    2.87   0
   1  -1 -15  413.54    4.77   0
  -3  -4 -28   -0.73    2.15   0
  -2  -4 -28   -0.61    2.52   0
  -2  -2 -27    5.09    2.68   0
  -2  -1 -26   -0.51    2.96   0
  -1 -14 -23    1.22    2.40   0
  -1 -11 -26   24.75    2.59   0
   0 -10 -24   16.94    3.05   0
   0  -8 -25   68.53    3.60   0
   0  -6 -25   -0.63    2.94   0
   0  -2 -23    8.27    2.76   0
   1 -12 -15   29.03    3.53   0
   1 -11 -17   36.39    3.60   0
   1  -6 -20    2.97    2.70   0
   1  -1 -14  173.25    3.18   0
  -2  -9 -28    9.15    2.09   0
  -2  -5 -28   34.06    2.73   0
  -1 -15 -21   10.03    2.50   0
  -1 -13 -24    1.36    2.31   0
  -1  -5 -27   21.25    2.99   0
  -1   1 -22    2.52    2.48   0
  -1   2 -20   82.20    3.05   0
   0 -14 -19    2.00    2.81   0
   0  -4 -24   45.14    3.39   0
   0   0 -20  992.29    7.92   0
   1 -10 -18    3.91    2.88   0
   1  -9 -19   20.01    3.01   0
   1  -5 -19    0.51    2.51   0
   1  -1 -13  761.56    5.62   0
  -3  -6 -28    0.65    2.15   0
  -3  -3 -27  101.72    3.55   0
  -2  -8 -28   -0.75    2.08   0
  -2  -7 -28   23.27    2.54   0
  -2  -6 -28    3.82    2.30   0
  -2  -3 -27    0.54    2.61   0
  -1 -10 -26   40.36    2.90   0
  -1  -2 -25   33.07    3.20   0
   0  -2 -22  890.74    8.47   0
   1 -11 -16   21.91    2.93   0
   1 -10 -17  428.49    6.39   0
   1  -9 -18   50.84    3.30   0
   1  -7 -19    8.63    2.78   0
   1  -6 -19  127.68    3.94   0
   1  -4 -18  336.41    4.92   0
  -2 -10 -27    2.60    2.02   0
  -2  -2 -26   28.36    2.96   0
  -1 -14 -22    4.51    2.37   0
  -1 -11 -25    8.67    2.43   0
  -1  -9 -26  134.72    4.03   0
  -1   1 -21   25.58    2.65   0
  -1   2 -19  281.43    4.20   0
   0 -14 -18  100.74    3.77   0
   0 -10 -23  217.39    5.03   0
   0  -4 -23  407.93    6.36   0
   1 -11 -15  132.74    3.95   0
   1  -7 -18   25.25    2.80   0
   1  -6 -18  189.32    4.34   0
   1  -5 -18  155.12    3.92   0
   1  -4 -17  350.98    5.05   0
   1  -3 -16   49.88    2.47   0
  -3  -4 -27    7.26    2.59   0
  -2  -9 -27    4.61    2.43   0
  -1 -15 -20    1.00    2.30   0
  -1 -13 -23    1.70    2.45   0
  -1  -8 -26    7.23    2.72   0
  -1  -7 -26   44.65    3.17   0
  -1  -6 -26   28.11    3.07   0
  -1   0 -22  169.78    4.00   0
   0  -8 -23  130.53    4.28   0
   0  -2 -21  322.50    5.28   0
   0   0 -18  693.55    6.24   0
   1 -11 -14  238.22    4.77   0
   1 -10 -16  182.92    4.41   0
   1  -5 -17   98.98    3.28   0
  -2 -11 -26    1.74    2.01   0
  -2  -8 -27    3.84    2.19   0
  -2  -6 -27   40.39    2.86   0
  -2  -5 -27    2.76    2.44   0
  -2  -3 -26   10.66    2.61   0
  -1 -10 -25   85.33    3.55   0
  -1  -2 -24  181.31    4.52   0
  -1   2 -18 1249.00    7.77   0
   0 -14 -17    1.14    2.82   0
   0 -10 -22   61.36    3.59   0
   0  -4 -22  668.41    7.61   0
   1 -11 -13  125.18    3.90   0
   1 -10 -15  221.75    4.55   0
   1  -8 -17  650.80    7.10   0
   1  -7 -17    4.17    2.38   0
   1  -6 -17  857.66    7.72   0
   1  -3 -14  356.91    4.29   0
   1  -2 -12  348.83    3.86   0
  -3  -8 -27   -0.49    1.69   0
  -3  -6 -27    1.49    2.30   0
  -3  -5 -27   29.13    2.53   0
  -3  -3 -26   19.82    2.87   0
  -2 -13 -24    2.38    2.03   0
  -2 -12 -25    1.66    2.01   0
  -2  -7 -27    5.38    2.35   0
  -2   1 -22   29.54    2.75   0
  -1 -14 -21   19.03    2.67   0
  -1 -11 -24   26.00    2.83   0
  -1  -9 -25   26.96    2.90   0
  -1  -5 -25   34.72    3.14   0
  -1   1 -20   24.28    2.47   0
   1 -11 -12   38.16    3.06   0
   1  -8 -16    0.64    2.31   0
   1  -7 -16  549.52    6.19   0
   1  -6 -16   22.28    2.35   0
   1  -4 -15  467.13    5.16   0
   1  -3 -13  274.64    3.65   0
  -3  -7 -27   13.62    2.07   0
  -2  -4 -26    7.55    2.69   0
  -2  -1 -24    2.19    2.59   0
  -1 -15 -19   34.48    2.78   0
  -1 -13 -22    1.76    2.57   0
  -1 -12 -23    6.95    2.55   0
  -1  -7 -25   24.96    2.94   0
  -1  -6 -25  182.65    4.69   0
  -1  -3 -24   10.28    2.82   0
  -1  -2 -23   21.19    2.75   0
   0 -14 -16   26.57    3.08   0
   0 -10 -21  331.53    5.84   0
   0  -8 -22   24.61    3.11   0
   1 -10 -14  446.29    5.67   0
   1  -5 -15  193.69    3.63   0
   1  -4 -14  763.01    6.12   0
   1  -3 -12  141.91    2.71   0
  -3  -4 -26    0.77    2.37   0
  -3  -2 -25    0.10    2.52   0
  -2 -11 -25    0.70    2.14   0
  -2  -9 -26   -1.89    2.20   0
  -2  -5 -26    2.81    2.48   0
  -1 -14 -20    1.30    2.71   0
  -1 -10 -24  101.86    3.79   0
  -1   2 -17  130.31    2.86   0
   0 -12 -19  124.72    4.05   0
   0   0 -16   32.64    1.92   0
   1 -10 -13  647.69    6.43   0
   1  -8 -15  767.84    7.08   0
   1  -7 -15    3.57    2.06   0
   1  -5 -14  287.48    4.02   0
   1  -4 -13  620.44    5.30   0
  -3  -5 -26  130.84    3.68   0
  -2 -13 -23   39.53    2.54   0
  -2  -8 -26    5.33    2.29   0
  -2  -7 -26    1.99    2.30   0
  -2  -6 -26    5.55    2.45   0
  -2   1 -21  761.13    6.76   0
  -1 -15 -18    3.72    2.51   0
  -1 -12 -22    1.12    2.84   0
  -1 -11 -23   17.52    2.75   0
  -1  -9 -24    2.52    2.63   0
  -1  -5 -24   61.63    3.43   0
  -1  -3 -23   83.94    3.48   0
   0 -10 -20  140.97    4.29   0
   0  -8 -21  843.96    8.61   0
   0  -6 -21  659.56    7.53   0
   1 -10 -12    3.10    2.15   0
   1  -9 -13   15.28    2.27   0
   1  -4 -12   33.28    1.81   0
  -3  -8 -26   -0.96    1.91   0
  -3  -7 -26  192.38    3.80   0
  -2 -15 -20    1.11    2.17   0
  -2  -4 -25    4.56    2.54   0
  -2  -2 -24    6.08    2.62   0
  -2  -1 -23  146.69    3.91   0
  -2   0 -22  510.30    5.91   0
  -1  -7 -24  135.17    4.24   0
  -1  -6 -24   42.03    3.20   0
  -1   0 -20   43.13    2.59   0
  -1   2 -16 1086.04    6.48   0
   0 -12 -18  116.69    3.97   0
   0  -4 -20  317.64    5.16   0
   0  -2 -18  771.70    6.63   0
   1 -10 -11    1.51    2.01   0
   1 -10 -10   28.40    2.48   0
   1  -9 -12    3.12    2.21   0
   1  -8 -13  157.99    3.38   0
   1  -6 -13  677.52    5.73   0
  -4  -6 -25    6.40    2.17   0
  -4  -5 -25   -0.33    1.70   0
  -4  -5 -25   -0.16    1.09   0
  -3 -10 -25   -0.81    1.70   0
  -3  -2 -24    4.70    2.76   0
  -2 -11 -24   22.57    2.49   0
  -2  -9 -25   -0.55    2.34   0
  -2  -5 -25    1.35    2.50   0
  -1 -15 -17   18.44    2.92   0
  -1 -10 -23   29.43    2.92   0
  -1  -4 -23   32.27    2.97   0
  -1   1 -18    1.48    1.81   0
   0 -10 -19  191.66    4.89   0
   0  -6 -20    3.26    2.35   0
   1  -9 -11    3.23    2.10   0
   1  -8 -12    1.34    1.73   0
   1  -7 -13   -1.95    1.67   0
   1  -5 -12   29.37    1.82   0
  -4  -7 -25   -0.16    1.46   0
  -4  -7 -25    0.10    0.97   0
  -3  -4 -25    0.76    2.35   0
  -2 -14 -21    0.03    2.09   0
  -2 -12 -23   10.27    2.25   0
  -2  -8 -25   -0.77    2.29   0
  -2  -7 -25    1.52    2.42   0
  -2  -6 -25    3.50    2.49   0
  -2   1 -20  232.05    3.98   0
  -1 -12 -21   13.35    2.70   0
  -1 -11 -22   15.33    2.68   0
  -1  -9 -23    2.93    2.54   0
  -1  -5 -23    1.86    2.58   0
  -1  -3 -22   63.75    3.17   0
  -1   2 -15  340.30    3.73   0
   0 -12 -17    3.54    2.73   0
   0  -4 -19  889.47    7.67   0
   0   0 -14   49.40    1.84   0
   1  -9 -10    2.97    1.99   0
   1  -6 -12   30.83    1.92   0
   1  -5 -11  177.34    2.86   0
  -4  -4 -24    7.94    2.47   0
  -3 -11 -24   16.81    2.02   0
  -3  -9 -25   35.27    2.35   0
  -2 -16 -17    0.17    2.19   0
  -2 -15 -19   56.38    2.69   0
  -2  -2 -23   54.17    3.06   0
  -2  -1 -22   30.36    2.69   0
  -1 -14 -18   72.77    3.57   0
  -1 -10 -22    3.05    2.61   0
  -1  -7 -23    1.60    2.48   0
  -1   1 -17  516.94    4.86   0
   0  -8 -19  119.17    3.75   0
   0  -2 -17    5.25    1.31   0
   1  -9  -9   14.54    1.75   0
   1  -8 -11  115.04    2.75   0
   1  -8 -10   18.49    1.99   0
   1  -7 -11   10.42    1.66   0
  -3 -12 -23    0.95    1.75   0
  -3  -8 -25   18.65    2.16   0
  -3  -7 -25   16.73    2.32   0
  -3  -6 -25   -1.82    2.16   0
  -3  -3 -24  166.65    4.00   0
  -2 -11 -23  110.00    3.52   0
  -2  -9 -24   75.95    3.28   0
  -2  -5 -24   46.60    3.02   0
  -1 -15 -16    4.16    2.51   0
  -1 -11 -21    2.98    2.51   0
  -1  -9 -22    2.30    2.53   0
  -1  -4 -22    6.11    2.48   0
   0 -12 -16   -1.81    2.47   0
   0  -6 -19  472.76    5.98   0
   0  -4 -18  248.71    4.19   0
   1  -8  -9   90.45    2.45   0
   1  -7 -10   95.61    2.32   0
  -4  -5 -24    0.35    2.15   0
  -3 -10 -24   -1.03    1.90   0
  -3  -4 -24    6.16    2.64   0
  -3  -2 -23   -0.61    2.36   0
  -2 -14 -20    8.73    2.21   0
  -2 -13 -21   50.51    2.79   0
  -2  -8 -24    0.67    2.34   0
  -2  -7 -24   83.08    3.40   0
  -2  -6 -24   15.16    2.67   0
  -2   1 -19  563.09    5.47   0
  -1 -12 -20   -1.87    2.37   0
  -1  -8 -22    1.24    2.61   0
  -1  -6 -22    6.90    2.57   0
  -1  -5 -22   37.24    2.88   0
  -1  -3 -21   15.82    2.48   0
   0 -12 -15   39.86    3.23   0
   0  -2 -16  124.80    2.76   0
  -4  -6 -24    2.51    1.95   0
  -3  -9 -24   71.35    2.75   0
  -3  -1 -22   -0.16    2.32   0
  -2 -16 -16    3.11    2.18   0
  -2 -15 -18    1.55    2.15   0
  -2  -4 -23   90.30    3.44   0
  -1 -15 -15   73.02    3.24   0
  -1 -14 -17    8.83    2.66   0
  -1 -10 -21    3.71    2.56   0
  -1  -4 -21    1.42    2.26   0
  -1  -2 -20   77.47    2.90   0
  -1  -1 -19   74.62    2.68   0
  -1   1 -16    7.74    1.56   0
   0 -10 -17  147.61    3.93   0
   0  -6 -18    9.31    2.21   0
   0  -4 -17   48.01    2.33   0
  -4  -4 -23   11.87    2.55   0
  -3 -14 -20    3.52    1.75   0
  -3 -12 -22   -0.13    1.74   0
  -3  -8 -24   -0.11    1.98   0
  -3  -7 -24  130.28    3.50   0
  -3  -6 -24    0.49    2.13   0
  -3  -3 -23   64.04    3.04   0
  -2  -9 -23    5.82    2.45   0
  -2  -5 -23  132.94    3.87   0
  -1 -12 -19   56.96    3.18   0
  -1 -11 -20   -0.84    2.48   0
  -1  -9 -21    1.50    2.57   0
  -1  -5 -21    3.94    2.24   0
   0 -12 -14  105.14    3.48   0
   0  -2 -15   12.23    1.56   0
  -4  -9 -23    0.12    1.64   0
  -3 -13 -21   -0.08    1.73   0
  -3 -10 -23   -0.71    1.87   0
  -2 -16 -15    5.35    2.38   0
  -2 -15 -17   13.04    2.56   0
  -2 -13 -20   53.00    2.84   0
  -2 -12 -21   12.17    2.40   0
  -2  -8 -23   22.35    2.71   0
  -2  -7 -23    8.45    2.38   0
  -2  -6 -23   32.69    2.83   0
  -2  -3 -22   26.02    2.60   0
  -2   1 -18   69.05    2.44   0
  -1 -15 -14    7.20    2.50   0
  -1 -14 -16  174.44    4.11   0
  -1 -10 -20    1.15    2.43   0
  -1  -6 -21    5.29    2.36   0
  -1  -3 -20    3.20    2.05   0
  -1  -2 -19  285.77    4.30   0
  -1  -1 -18   -1.13    1.70   0
   0 -10 -16   36.12    2.78   0
   0  -8 -17  764.13    7.21   0
   0  -6 -17  592.61    6.04   0
  -4  -8 -23   38.12    2.26   0
  -4  -6 -23   69.61    3.00   0
  -4  -5 -23   30.85    2.46   0
  -3  -9 -23    8.76    2.07   0
  -3  -4 -23    5.41    2.33   0
  -3  -2 -22   20.35    2.56   0
  -3  -1 -21    0.98    2.25   0
  -2 -10 -22   -0.01    2.28   0
  -2  -2 -21    2.84    2.29   0
  -1 -13 -17   80.84    3.42   0
  -1 -12 -18  115.39    3.69   0
  -1 -11 -19    0.95    2.50   0
  -1  -4 -20   21.23    2.39   0
   0 -12 -13  290.28    4.65   0
   0  -2 -14 1162.49    6.55   0
  -4 -10 -22   14.65    1.71   0
  -4  -3 -22   54.12    2.82   0
  -3 -14 -19   -1.68    1.80   0
  -3 -12 -21    9.09    1.94   0
  -3  -8 -23    1.40    2.06   0
  -3  -6 -23    0.76    2.48   0
  -3  -5 -23    6.21    2.35   0
  -2 -11 -21   51.95    2.95   0
  -2  -4 -22   51.31    2.94   0
  -2  -1 -20  235.34    4.09   0
  -1 -15 -13   29.30    2.73   0
  -1 -14 -15    1.94    2.46   0
  -1  -8 -20   28.46    2.70   0
  -1  -5 -20   14.87    2.34   0
  -1  -3 -19   46.46    2.49   0
   0 -10 -15   45.50    2.73   0
   0  -8 -16    2.53    2.12   0
   0  -6 -16  170.63    3.45   0
  -5  -6 -21    1.61    2.04   0
  -4  -4 -22   84.38    3.22   0
  -3 -13 -20   -3.54    1.73   0
  -3 -10 -22   -1.55    1.89   0
  -3  -7 -23    3.37    2.12   0
  -3  -3 -22   20.49    2.51   0
  -2 -16 -14   16.18    2.32   0
  -2 -15 -16    1.67    2.19   0
  -2 -13 -19  153.50    3.80   0
  -2 -12 -20   47.50    2.86   0
  -2  -8 -22    1.22    2.37   0
  -2  -7 -22  322.74    5.34   0
  -2  -6 -22   14.38    2.56   0
  -2  -3 -21  455.86    5.64   0
  -2   1 -17  158.69    3.09   0
  -1  -6 -20   -0.35    2.13   0
  -1  -2 -18 1205.69    7.78   0
  -1  -1 -17  519.36    4.93   0
   0 -12 -12  259.90    4.31   0
   0  -2 -13  775.13    5.10   0
  -4 -11 -21   14.95    1.74   0
  -4  -9 -22   94.74    2.80   0
  -4  -5 -22  106.09    3.39   0
  -3 -16 -15    0.95    1.87   0
  -2 -10 -21   76.99    3.22   0
  -1 -14 -14  185.32    4.10   0
  -1 -12 -17  249.19    4.76   0
  -1 -11 -18  126.93    3.84   0
  -1  -9 -19   19.98    2.54   0
  -1  -4 -19  113.48    3.20   0
   0 -12 -11  343.43    4.79   0
   0  -8 -15  152.05    3.40   0
  -4  -8 -22    1.18    1.84   0
  -4  -7 -22   70.23    2.79   0
  -4  -6 -22    0.23    2.05   0
  -4  -3 -21   82.72    3.24   0
  -3 -14 -18   13.37    2.06   0
  -3 -12 -20    2.72    1.90   0
  -3  -9 -22   24.67    2.30   0
  -3  -8 -22    3.01    2.11   0
  -3  -5 -22   19.43    2.40   0
  -3  -1 -20   25.40    2.38   0
  -2 -16 -13   17.69    2.39   0
  -2 -15 -15   14.55    2.61   0
  -2 -13 -18   -1.77    2.21   0
  -2 -12 -19   10.67    2.39   0
  -2 -11 -20   94.01    3.43   0
  -2  -4 -21   54.46    2.85   0
  -2   0 -18    0.03    1.74   0
  -1 -10 -18    4.07    2.33   0
  -1  -8 -19  117.45    3.59   0
  -1  -6 -19  127.28    3.47   0
  -1  -5 -19   -0.33    1.98   0
  -1  -3 -18  214.59    3.70   0
   0  -6 -15  213.33    3.51   0
  -4 -10 -21   29.73    2.09   0
  -3 -16 -14   -0.15    1.97   0
  -3 -13 -19   25.24    2.16   0
  -3 -10 -21    0.88    1.96   0
  -3  -7 -22   44.55    2.65   0
  -3  -6 -22    1.44    2.18   0
  -2 -10 -20   96.46    3.39   0
  -2  -8 -21  123.29    3.69   0
  -2  -7 -21    0.23    2.30   0
  -2  -6 -21  189.81    4.23   0
  -2  -5 -21   65.17    2.98   0
  -2  -3 -20  307.64    4.62   0
  -1 -14 -13    6.06    2.43   0
  -1 -13 -15  129.95    3.67   0
  -1 -11 -17   38.85    2.86   0
  -1  -2 -17  127.57    2.82   0
  -1  -1 -16    7.87    1.51   0
   0 -12 -10   95.27    2.86   0
   0 -10 -13  764.57    6.53   0
   0  -8 -14   12.47    1.88   0
  -5  -8 -20    2.65    1.82   0
  -5  -7 -20    2.70    2.05   0
  -5  -6 -20   20.30    2.32   0
  -5  -5 -20    3.17    2.06   0
  -4 -11 -20    7.82    1.77   0
  -4  -9 -21   19.06    2.08   0
  -4  -4 -21  126.94    3.37   0
  -4  -2 -20   45.90    2.70   0
  -2 -16 -12    2.09    2.22   0
  -2 -11 -19   52.37    2.92   0
  -2   1 -16    1.07    1.50   0
  -1  -9 -18   48.31    2.89   0
  -1  -4 -18  341.99    4.55   0
   0  -6 -14  372.19    4.23   0
  -4 -13 -18   17.94    1.91   0
  -4  -8 -21   52.59    2.54   0
  -4  -5 -21   29.24    2.46   0
  -3 -14 -17    4.75    1.98   0
  -3 -13 -18   25.28    2.22   0
  -3 -12 -19   -1.93    1.86   0
  -3 -11 -20   26.87    2.28   0
  -3  -9 -21    4.41    2.04   0
  -3  -2 -20   42.00    2.53   0
  -3  -1 -19  218.25    3.96   0
  -3   0 -18   74.15    2.86   0
  -2 -15 -14   26.62    2.54   0
  -2 -13 -17   10.16    2.40   0
  -2 -12 -18   16.99    2.47   0
  -2  -4 -20   60.13    2.82   0
  -1 -14 -12  124.55    3.76   0
  -1 -10 -17  401.77    5.58   0
  -1  -8 -18   36.64    2.60   0
  -1  -7 -18   29.77    2.48   0
  -1  -6 -18  181.69    3.79   0
  -1  -3 -17  159.81    3.12   0
   0 -12  -9  408.43    4.60   0
  -5  -9 -19    4.78    1.90   0
  -4 -10 -20   11.90    1.86   0
  -4  -7 -21    0.79    1.92   0
  -4  -3 -20   30.79    2.48   0
  -3 -16 -13   18.49    2.04   0
  -3 -10 -20    1.16    2.03   0
  -3  -8 -21    6.74    2.13   0
  -3  -7 -21   -0.76    2.15   0
  -3  -6 -21   23.46    2.37   0
  -3  -5 -21    0.71    2.08   0
  -2 -10 -19   -0.66    2.17   0
  -2  -7 -20  230.95    4.50   0
  -2  -6 -20    0.17    2.14   0
  -2  -5 -20  329.92    4.95   0
  -2  -3 -19  293.59    4.33   0
  -1 -11 -16   19.67    2.46   0
  -1  -9 -17   51.41    2.81   0
  -1  -4 -17  324.32    4.21   0
  -1  -2 -16 1057.85    6.59   0
  -1  -1 -15  389.24    3.88   0
  -4 -14 -16    0.80    1.71   0
  -4 -11 -19   21.80    1.97   0
  -4  -9 -20   46.39    2.58   0
  -3  -3 -20   25.75    2.37   0
  -2 -15 -13   73.49    2.96   0
  -2 -13 -16    8.15    2.25   0
  -2 -11 -18  174.78    4.10   0
  -2   1 -15  139.45    2.47   0
  -1 -13 -13   12.88    2.39   0
  -1 -10 -16  147.12    3.64   0
  -1  -5 -17   87.16    2.67   0
   0 -10 -11  426.79    4.62   0
   0  -4 -12  603.04    4.46   0
  -5 -10 -18    1.17    1.54   0
  -5  -7 -19    1.82    1.88   0
  -5  -6 -19   54.23    2.69   0
  -5  -5 -19    1.59    2.05   0
  -4 -13 -17    5.59    1.80   0
  -4 -12 -18   23.21    2.05   0
  -4  -8 -20    1.61    1.85   0
  -4  -4 -20   49.90    2.71   0
  -4  -2 -19    0.64    2.14   0
  -3 -16 -12    3.79    2.08   0
  -3 -13 -17  143.79    3.44   0
  -3 -12 -18    1.15    1.96   0
  -3 -11 -19   31.15    2.36   0
  -3  -9 -20   25.67    2.42   0
  -3  -2 -19   15.58    2.13   0
  -2 -12 -17   29.37    2.58   0
  -2  -9 -19    2.20    1.62   0
  -2  -8 -19   26.84    2.46   0
  -2   0 -16   35.78    1.87   0
  -1  -7 -17    2.17    1.93   0
   0  -8 -12   15.44    1.66   0
   0  -6 -12  130.00    2.44   0
  -4 -10 -19   42.53    2.35   0
  -4  -7 -20   95.59    2.99   0
  -4  -6 -20   14.26    2.18   0
  -4  -5 -20  207.14    3.94   0
  -3  -8 -20    1.35    2.03   0
  -3  -7 -20   62.89    2.89   0
  -3  -6 -20   15.63    2.30   0
  -3  -1 -18   17.87    2.08   0
  -2 -15 -12   35.45    2.55   0
  -2 -14 -14   11.90    2.31   0
  -2 -10 -18    3.99    2.31   0
  -2  -7 -19   14.54    2.26   0
  -2  -5 -19  101.95    3.09   0
  -1 -13 -12    2.24    2.14   0
  -1  -9 -16  345.17    4.89   0
  -1  -4 -16  509.51    4.89   0
  -1  -1 -14  154.28    2.48   0
   0 -10 -10  224.21    3.37   0
  -5  -9 -18    1.98    1.74   0
  -4 -14 -15    7.86    1.85   0
  -4 -11 -18   36.49    2.16   0
  -4  -3 -19  197.97    3.79   0
  -3 -14 -15    8.31    2.10   0
  -3 -11 -18   90.36    3.05   0
  -3  -3 -19  116.55    3.11   0
  -2 -13 -15    3.84    2.24   0
  -2 -12 -16   -0.59    2.16   0
  -2 -11 -17   53.65    2.90   0
  -2  -3 -18  136.05    3.08   0
  -1 -11 -14  215.54    4.06   0
  -1 -10 -15  216.70    4.07   0
  -1  -8 -16    1.77    1.91   0
  -1  -5 -16  399.16    4.51   0
  -5  -8 -18    7.52    1.92   0
  -5  -4 -18   24.91    2.34   0
  -4 -15 -13    9.98    1.89   0
  -4 -13 -16   -0.99    1.77   0
  -4 -12 -17    4.77    1.85   0
  -4  -9 -19    0.22    1.76   0
  -4  -4 -19  100.32    3.10   0
  -3 -16 -11   13.91    2.05   0
  -3 -15 -13   57.31    2.58   0
  -3 -13 -16   31.37    2.39   0
  -3 -12 -17    0.71    1.98   0
  -3  -9 -19   28.74    2.46   0
  -3  -4 -19    1.35    1.89   0
  -2 -15 -11  178.92    3.95   0
  -2 -14 -13   23.41    2.45   0
  -2  -4 -18    2.15    1.81   0
  -2   1 -14   37.96    1.57   0
  -1 -14  -9   12.18    2.21   0
  -1 -13 -11    1.19    2.13   0
  -1  -9 -15   80.57    2.77   0
   0  -6 -11 2154.83    8.27   0
  -5 -10 -17   67.58    2.34   0
  -5  -7 -18    6.86    2.03   0
  -5  -6 -18    7.25    2.05   0
  -5  -5 -18    4.64    1.97   0
  -4 -10 -18    1.94    1.76   0
  -4  -8 -19   49.86    2.43   0
  -4  -7 -19    3.38    1.93   0
  -4  -6 -19   55.32    2.55   0
  -4  -2 -18   79.69    2.85   0
  -3  -8 -19    5.51    2.04   0
  -3  -7 -19   17.60    2.27   0
  -3  -5 -19   76.35    2.87   0
  -3  -2 -18   -0.88    1.84   0
  -2 -13 -14    6.58    2.17   0
  -2  -7 -18  357.20    5.02   0
  -2  -6 -18   10.12    2.10   0
  -2  -5 -18  200.28    3.76   0
  -2  -1 -16   -0.20    1.49   0
  -1 -12 -12   46.46    2.52   0
  -1  -4 -15  428.12    4.28   0
  -1  -2 -14  396.80    3.74   0
  -5 -11 -16    3.82    1.54   0
  -5  -9 -17    7.27    1.74   0
  -4 -15 -12    9.47    2.04   0
  -4 -14 -14    3.11    1.75   0
  -4 -11 -17    5.60    1.83   0
  -4  -3 -18   12.66    2.43   0
  -3 -16 -10   -0.08    1.89   0
  -3 -15 -12    0.14    2.22   0
  -3 -14 -14    3.97    1.95   0
  -3 -13 -15  108.75    3.38   0
  -3 -11 -17   53.10    2.69   0
  -3  -1 -17  584.29    5.26   0
  -3   0 -16   37.65    1.97   0
  -2 -15 -10   23.84    2.73   0
  -2 -12 -15    9.24    2.33   0
  -2 -11 -16    6.19    1.73   0
  -2  -9 -17   66.43    2.84   0
  -2  -3 -17  105.51    2.71   0
  -1 -13 -10    8.31    2.35   0
  -1  -7 -15    1.41    1.63   0
  -1  -5 -15  171.88    3.02   0
   0 -10  -8   40.96    1.79   0
   0  -6 -10  276.70    3.02   0
  -6  -6 -15   -0.52    1.36   0
  -5  -4 -17   85.32    3.03   0
  -4 -13 -15    1.30    1.73   0
  -4 -12 -16    3.06    1.87   0
  -4  -9 -18   81.07    2.78   0
  -3 -12 -16    3.73    2.05   0
  -3  -9 -18   74.16    2.87   0
  -2 -14 -12   25.13    2.39   0
  -2 -10 -16    1.84    2.03   0
  -2  -4 -17    0.73    1.68   0
  -1  -9 -14  114.26    2.98   0
  -1  -3 -14  315.73    3.46   0
  -5 -10 -16   23.85    1.98   0
  -5  -5 -17    0.83    2.02   0
  -4 -16  -9    3.64    1.68   0
  -4 -14 -13    3.17    1.76   0
  -4 -10 -17   -0.27    1.74   0
  -4  -8 -18    8.56    1.94   0
  -4  -4 -18    9.04    2.02   0
  -4  -2 -17   12.10    2.11   0
  -3 -14 -13    4.11    1.96   0
  -3  -8 -18   15.73    2.21   0
  -3  -5 -18  209.21    3.83   0
  -3  -4 -18   59.77    2.58   0
  -3  -2 -17   61.65    2.41   0
  -2 -13 -13  119.50    3.42   0
  -2 -11 -15    4.14    2.14   0
  -2  -7 -17    0.52    1.87   0
  -2  -6 -17   18.18    2.08   0
  -2  -5 -17   83.06    2.68   0
  -2  -1 -15  148.75    2.60   0
  -2   0 -14   39.68    1.61   0
  -1 -13  -9    3.13    2.27   0
  -1 -12 -11   23.33    2.22   0
  -1 -11 -12   36.27    2.31   0
  -1  -8 -14   12.92    1.82   0
  -1  -4 -14  700.08    5.10   0
  -1  -2 -13   24.94    1.41   0
   0 -10  -7  180.38    2.66   0
  -5 -12 -14   37.36    1.97   0
  -5 -11 -15    6.61    1.59   0
  -5  -9 -16    6.36    2.00   0
  -4 -15 -11  104.77    2.85   0
  -4 -13 -14   13.67    1.92   0
  -4  -7 -18   57.93    2.55   0
  -4  -6 -18    5.88    1.97   0
  -3 -15 -11   70.54    2.73   0
  -3 -13 -14   32.57    2.41   0
  -3 -11 -16  135.63    3.49   0
  -3  -6 -18   -0.84    1.86   0
  -3  -1 -16  112.59    2.64   0
  -2 -14 -11    6.40    2.18   0
  -2  -9 -16   -1.24    2.02   0
  -2  -3 -16  108.65    2.56   0
  -1  -7 -14  436.79    4.59   0
  -1  -6 -14   61.09    2.09   0
  -6  -7 -14    1.02    1.65   0
  -6  -6 -14   22.70    2.10   0
  -5  -3 -16    2.73    2.05   0
  -4 -16  -8   14.09    2.02   0
  -4 -12 -15    0.63    1.81   0
  -4  -9 -17    0.59    1.81   0
  -4  -1 -16   13.31    1.98   0
  -3 -16  -8   -0.91    1.95   0
  -3  -9 -17    9.07    2.05   0
  -2 -10 -15   -0.80    1.99   0
  -2  -4 -16    1.92    1.55   0
  -1 -12 -10   -1.41    1.81   0
  -1 -10 -12    1.81    1.67   0
  -1  -9 -13   15.95    1.80   0
  -1  -3 -13  257.36    2.98   0
   0  -8  -8    7.23    1.20   0
  -5 -13 -12    2.90    1.54   0
  -5 -10 -15   36.26    2.09   0
  -5  -8 -16    4.35    1.88   0
  -5  -4 -16  100.14    2.98   0
  -4 -14 -12   21.17    2.09   0
  -4 -10 -16    1.92    1.79   0
  -4  -8 -17    8.21    1.98   0
  -4  -4 -17    1.77    1.94   0
  -3 -15 -10   78.86    2.78   0
  -3 -14 -12    3.47    1.97   0
  -3 -10 -16   37.81    2.54   0
  -3  -4 -17  109.36    2.93   0
  -2 -15  -8    2.61    2.08   0
  -2 -14 -10   71.80    2.86   0
  -2 -12 -13   42.47    2.53   0
  -2 -11 -14   10.64    2.17   0
  -2  -7 -16  145.02    3.27   0
  -2  -6 -16  276.42    4.04   0
  -2  -5 -16   20.78    1.89   0
  -2  -2 -15   51.71    1.89   0
  -1 -13  -8    4.72    1.91   0
  -1  -8 -13  142.83    2.89   0
  -1  -4 -13  557.83    4.35   0
  -6  -8 -13  104.89    2.72   0
  -5 -11 -14   13.07    1.74   0
  -5  -7 -16   24.08    2.16   0
  -5  -5 -16   15.30    2.18   0
  -4 -16  -7    1.97    1.90   0
  -4 -12 -14   12.57    1.93   0
  -4  -7 -17    2.06    1.88   0
  -4  -6 -17    0.95    1.82   0
  -4  -2 -16    0.33    1.85   0
  -3 -16  -7    0.53    1.91   0
  -3 -12 -14    7.30    2.08   0
  -3 -11 -15  142.64    3.54   0
  -3  -7 -17    2.02    1.39   0
  -3  -6 -17    0.66    1.85   0
  -3  -5 -17    7.45    1.92   0
  -3  -2 -16   12.52    1.78   0
  -2  -9 -15    2.84    1.90   0
  -1 -12  -9    1.32    1.79   0
  -1  -9 -12    1.92    1.56   0
  -1  -7 -13    0.17    1.37   0
  -1  -6 -13  672.42    5.11   0
  -6  -7 -13    1.48    1.88   0
  -5  -9 -15    0.60    1.71   0
  -5  -3 -15   25.29    2.47   0
  -4 -14 -11   18.75    2.02   0
  -4  -9 -16    3.39    1.83   0
  -4  -1 -15   81.72    2.65   0
  -3 -15  -9  153.53    3.37   0
  -3 -14 -11   15.67    2.17   0
  -3  -1 -15  560.89    4.77   0
  -2 -15  -7  114.39    3.05   0
  -2 -14  -9    6.86    2.16   0
  -2 -12 -12    2.62    1.97   0
  -2 -10 -14   18.13    2.13   0
  -2  -8 -15    8.09    1.93   0
  -2  -3 -15   23.73    1.35   0
  -1 -13  -7  205.81    3.42   0
  -1 -11 -10    3.57    1.77   0
  -1 -10 -11    0.73    1.64   0
  -6  -9 -12   25.82    1.87   0
  -6  -6 -13   70.66    2.48   0
  -6  -5 -13   11.62    1.96   0
  -5 -14  -9   39.23    2.03   0
  -5 -13 -11    6.77    1.54   0
  -5 -11 -13    1.00    1.57   0
  -5 -10 -14    3.66    1.72   0
  -4 -16  -6    0.88    1.90   0
  -4 -10 -15   18.37    2.07   0
  -4  -8 -16    1.99    1.80   0
  -4  -3 -16    1.92    1.81   0
  -3 -16  -6    3.60    1.95   0
  -3 -13 -12   28.79    2.33   0
  -3 -10 -15   -0.32    1.92   0
  -3  -8 -16   17.29    2.11   0
  -3  -4 -16  107.46    2.80   0
  -2  -7 -15    7.48    1.80   0
  -2  -6 -15   15.89    1.79   0
  -2  -5 -15  111.60    2.64   0
  -2  -4 -15   66.64    2.13   0
  -2  -2 -14   56.31    1.80   0
  -1 -12  -8  111.29    2.92   0
  -1  -8 -12   -0.97    1.35   0
  -5  -7 -15    1.68    1.84   0
  -5  -5 -15    4.21    2.06   0
  -4 -12 -13    0.55    1.89   0
  -4  -7 -16    1.48    1.78   0
  -4  -6 -16   26.60    2.13   0
  -4  -4 -16   10.69    1.98   0
  -3 -12 -13    7.49    2.03   0
  -3 -11 -14  119.07    3.23   0
  -3  -7 -16  380.79    4.84   0
  -3  -6 -16   42.17    2.34   0
  -3  -5 -16  379.18    4.62   0
  -3  -2 -15   32.96    1.84   0
  -2 -15  -6   -0.32    2.03   0
  -2  -9 -14  219.92    3.79   0
  -1 -11  -9   24.91    2.08   0
  -1  -9 -11    3.41    1.50   0
  -1  -7 -12  170.44    2.79   0
  -1  -6 -12   28.20    1.54   0
  -5 -13 -10    1.11    1.55   0
  -5  -9 -14   13.87    1.88   0
  -4 -16  -5    1.20    1.73   0
  -4  -9 -15   53.32    2.47   0
  -4  -2 -15   34.70    2.16   0
  -3 -16  -5   -0.88    1.88   0
  -2 -12 -11   11.40    2.08   0
  -2 -11 -12  479.21    5.35   0
  -2 -10 -13   93.43    2.88   0
  -2  -8 -14   86.91    2.69   0
  -2  -3 -14  190.43    2.84   0
  -2  -1 -13  694.52    4.56   0
  -1 -10 -10   30.63    1.86   0
  -6  -9 -11   -0.40    1.64   0
  -6  -7 -12   10.58    1.78   0
  -6  -6 -12    2.22    1.79   0
  -6  -5 -12    8.14    1.93   0
  -5 -14  -8   10.54    1.57   0
  -5 -12 -11   25.82    1.94   0
  -5 -11 -12    3.48    1.63   0
  -5 -10 -13   92.75    2.69   0
  -4 -13 -11  214.68    3.87   0
  -4 -10 -14   10.72    1.97   0
  -4  -8 -15    2.51    1.84   0
  -4  -3 -15   40.92    2.21   0
  -4  -1 -14    0.66    1.88   0
  -3 -15  -7  177.35    3.61   0
  -3 -13 -11   16.34    2.17   0
  -3 -12 -12    1.00    1.92   0
  -3 -11 -13   47.28    2.47   0
  -3  -8 -15  127.41    3.19   0
  -3  -1 -14   11.89    1.52   0
  -2  -6 -14   17.21    1.66   0
  -2  -4 -14    9.09    1.45   0
  -1  -8 -11  118.83    2.42   0
  -6 -10 -10    4.96    1.49   0
  -5 -13  -9    1.23    1.73   0
  -5  -7 -14   18.83    2.16   0
  -4 -16  -4    0.74    1.81   0
  -4 -14  -9   33.91    2.31   0
  -4 -12 -12   74.44    2.72   0
  -4 -11 -13   35.55    2.30   0
  -4  -7 -15    7.76    1.85   0
  -3  -6 -15    3.98    1.81   0
  -3  -4 -15    2.06    1.64   0
  -2 -14  -7   18.08    2.20   0
  -2 -12 -10   94.13    2.81   0
  -2 -10 -12   21.05    1.97   0
  -2  -9 -13   22.99    1.63   0
  -2  -2 -13    4.77    1.19   0
  -1  -9 -10    2.08    1.36   0
  -1  -7 -11    8.82    1.30   0
  -1  -6 -11    3.72    1.13   0
  -5 -14  -7   -0.82    1.52   0
  -5 -12 -10   14.63    2.02   0
  -5 -10 -12    0.37    1.94   0
  -5  -9 -13    1.10    1.67   0
  -5  -5 -14   24.05    2.16   0
  -5  -2 -13    4.94    2.27   0
  -4  -9 -14   10.89    1.91   0
  -4  -5 -15    3.82    1.79   0
  -3 -15  -6    2.89    2.23   0
  -3 -13 -10    1.35    1.91   0
  -2  -8 -13   10.38    1.75   0
  -1 -12  -6  402.23    4.14   0
  -6 -10  -9   76.04    2.26   0
  -6  -9 -10    2.97    1.66   0
  -6  -7 -11    9.03    1.89   0
  -6  -6 -11   64.27    2.61   0
  -5 -11 -11   -1.28    1.65   0
  -4 -16  -3   -0.24    1.44   0
  -4 -16  -3    0.44    0.94   0
  -4 -15  -6    1.06    1.88   0
  -4 -12 -11   95.20    2.97   0
  -4 -11 -12   26.32    2.18   0
  -4  -8 -14    0.17    1.74   0
  -4  -2 -14    3.50    1.69   0
  -3 -12 -11   13.15    2.07   0
  -3 -10 -13   -0.02    1.80   0
  -3  -8 -14   33.28    2.23   0
  -2 -14  -6   13.86    2.10   0
  -2 -13  -8   51.89    2.47   0
  -2  -3 -13  850.40    5.31   0
  -2  -1 -12    0.38    1.02   0
  -1  -8 -10   17.91    1.40   0
  -6  -8 -10    1.73    1.91   0
  -6  -5 -11   15.17    2.06   0
  -5  -9 -12   20.37    2.00   0
  -5  -3 -13   42.92    2.39   0
  -4 -16  -2   33.96    2.29   0
  -4  -7 -14   73.75    2.58   0
  -4  -1 -13  121.13    2.84   0
  -3 -15  -5  180.44    3.62   0
  -3  -4 -14   22.70    1.76   0
  -3  -3 -14   45.62    1.97   0
  -2 -11 -10  151.36    3.17   0
  -2  -5 -13  206.70    3.03   0
  -1 -12  -5  308.68    3.73   0
  -1  -9  -9   14.10    1.43   0
  -1  -7 -10   99.60    2.07   0
  -6 -11  -7   10.67    1.72   0
  -6  -9  -9    2.93    1.81   0
  -5 -12  -9   14.31    1.82   0
  -5 -11 -10    7.82    1.78   0
  -5 -10 -11    1.20    1.67   0
  -5  -4 -13   19.62    2.15   0
  -4 -15  -5    2.06    1.85   0
  -4 -14  -7    1.73    2.21   0
  -4 -13  -9   36.75    2.35   0
  -4  -9 -13   41.76    2.27   0
  -4  -6 -14   88.90    2.70   0
  -4  -5 -14   86.49    2.63   0
  -3 -14  -7    1.66    1.95   0
  -3 -13  -9    3.00    1.92   0
  -3 -12 -10   51.01    2.47   0
  -3 -10 -12   40.18    2.30   0
  -3  -6 -14  115.90    2.59   0
  -3   0 -12   10.04    1.28   0
  -2  -8 -12   30.46    1.91   0
  -2  -2 -12  234.87    2.75   0
  -1  -6 -10   38.01    1.47   0
  -1  -5 -10  262.80    2.80   0
  -5 -14  -5   -1.23    1.55   0
  -5 -13  -7    6.37    1.70   0
  -5  -8 -12    1.85    1.83   0
  -5  -2 -12  131.09    3.03   0
  -4 -16  -1    0.93    1.46   0
  -4 -16  -1    0.78    0.96   0
  -4 -12 -10   72.75    2.79   0
  -4  -8 -13  161.68    3.34   0
  -4  -2 -13   32.66    1.97   0
  -3 -15  -4    6.79    2.20   0
  -3 -11 -11   71.43    2.69   0
  -3  -8 -13    8.69    1.80   0
  -3  -2 -13    5.50    1.37   0
  -2  -9 -11  235.88    3.57   0
  -2  -3 -12  370.76    3.47   0
  -1  -8  -9  101.39    2.09   0
  -6  -8  -9   96.50    2.65   0
  -6  -5 -10   12.28    2.03   0
  -5 -12  -8   36.89    2.05   0
  -5  -9 -11    4.26    1.81   0
  -5  -7 -12   21.30    2.14   0
  -5  -3 -12    2.22    1.84   0
  -4 -15  -4    4.53    1.92   0
  -3 -14  -6   16.98    2.05   0
  -3  -9 -12  163.88    3.36   0
  -3  -7 -13   19.61    1.92   0
  -3  -3 -13  716.47    5.26   0
  -2 -13  -6    1.36    2.07   0
  -2 -10 -10    2.26    1.67   0
  -2  -6 -12  202.15    3.03   0
  -2  -4 -12  199.45    2.75   0
  -1 -12  -4  426.24    4.01   0
  -1 -10  -7  561.88    4.48   0
  -1  -9  -8  362.95    3.59   0
  -1  -7  -9    0.21    1.08   0
  -6 -11  -6    1.20    1.48   0
  -6  -9  -8    0.64    1.68   0
  -5 -15  -1    0.18    1.17   0
  -5 -13  -6    0.07    1.58   0
  -5 -10 -10    7.94    1.79   0
  -5  -6 -12    6.86    1.97   0
  -5  -4 -12    5.67    1.92   0
  -4 -14  -6    0.10    1.90   0
  -4 -12  -9   74.16    2.82   0
  -4  -9 -12  241.83    3.97   0
  -4  -6 -13   85.42    2.63   0
  -4  -5 -13  164.94    3.20   0
  -4  -1 -12    0.97    1.81   0
  -3 -15  -3  132.21    3.23   0
  -3 -11 -10   10.82    1.95   0
  -3 -10 -11   -1.32    1.77   0
  -3  -6 -13   23.34    1.85   0
  -3  -4 -13    1.15    1.47   0
  -2  -8 -11  216.85    3.29   0
  -1  -6  -9  892.35    4.92   0
  -6  -3  -9    0.09    1.88   0
  -3 -14  -5   11.44    2.30   0
  -3 -13  -7  253.30    4.06   0
  -3  -8 -12    0.90    1.77   0
  -2 -14  -3    0.69    1.78   0
  -2  -9 -10  742.04    5.74   0
  -2  -2 -11   22.27    1.25   0
  -1  -8  -8   61.26    1.73   0
  -6 -11  -5    4.25    1.53   0
  -6  -8  -8    4.67    1.79   0
  -6  -5  -9   54.56    2.45   0
  -5 -13  -5   20.35    1.84   0
  -5 -12  -7   30.13    2.05   0
  -5 -10  -9   23.67    2.01   0
  -5  -9 -10    5.82    1.86   0
  -5  -7 -11    2.63    1.91   0
  -4 -15  -2    5.19    2.22   0
  -4 -14  -5    2.38    1.96   0
  -4  -9 -11   19.79    1.98   0
  -3 -15  -2   10.59    2.04   0
  -3  -9 -11    0.91    1.76   0
  -3  -7 -12  200.82    3.38   0
  -3  -2 -12   20.04    1.46   0
  -2 -13  -5   24.06    2.08   0
  -2 -10  -9  106.48    2.63   0
  -2  -7 -11   78.35    1.95   0
  -2  -6 -11  179.76    2.76   0
  -2  -3 -11  736.03    4.60   0
  -1 -10  -6   91.69    2.10   0
  -6 -10  -6   21.44    1.80   0
  -6  -7  -8    7.33    1.82   0
  -5  -6 -11   26.35    2.23   0
  -5  -4 -11   24.16    2.11   0
  -5  -3 -11    0.26    1.91   0
  -4  -6 -12    0.42    1.68   0
  -4  -3 -12   11.98    1.75   0
  -3 -12  -8   -1.15    1.80   0
  -3 -10 -10    7.40    1.90   0
  -3  -6 -12    7.30    1.59   0
  -2 -12  -6   17.22    2.16   0
  -2  -8 -10   19.49    1.63   0
  -2  -4 -11  145.62    2.33   0
  -6 -11  -4    9.13    1.63   0
  -6  -3  -8   12.49    2.34   0
  -5 -14  -2    5.96    1.61   0
  -5  -8 -10    0.26    1.80   0
  -4 -15  -1  138.60    3.11   0
  -4 -14  -4    1.03    1.98   0
  -4 -13  -6    5.86    2.06   0
  -4  -8 -11  265.33    4.04   0
  -4  -5 -12  115.14    2.81   0
  -4  -4 -12  200.63    3.33   0
  -4  -1 -11  231.76    3.32   0
  -3 -15  -1   23.42    2.12   0
  -3  -5 -12  236.86    3.34   0
  -3  -4 -12    3.22    1.33   0
  -3  -1 -11  180.51    2.52   0
  -2 -11  -7  323.54    4.18   0
  -2  -9  -9   61.21    2.12   0
  -1 -10  -5  800.17    4.99   0
  -1  -8  -7  229.49    2.71   0
  -6 -10  -5    2.11    1.65   0
  -6  -9  -6   19.17    1.93   0
  -6  -8  -7    3.14    1.72   0
  -6  -4  -8    7.63    2.05   0
  -5 -11  -7    9.76    1.88   0
  -5 -10  -8    2.91    1.87   0
  -5  -9  -9    6.56    1.85   0
  -5  -7 -10   16.80    2.11   0
  -4 -15   0    9.21    2.26   0
  -4 -12  -7   12.53    2.17   0
  -4  -7 -11   -0.66    1.64   0
  -3 -12  -7    1.03    1.86   0
  -3  -9 -10   28.12    2.01   0
  -3  -7 -11    1.96    1.51   0
  -2 -10  -8   72.60    2.29   0
  -2  -7 -10 1331.33    6.98   0
  -2  -2 -10  860.54    4.63   0
  -6  -7  -7   20.79    2.12   0
  -5 -13  -3    6.17    1.75   0
  -5 -12  -5   23.61    2.07   0
  -5  -8  -9    2.69    1.87   0
  -5  -6 -10    7.89    2.00   0
  -4 -13  -5    1.68    2.03   0
  -4 -10  -9   93.64    2.95   0
  -4  -6 -11   53.55    2.26   0
  -3 -14  -3   27.06    2.24   0
  -3 -11  -8  436.15    5.01   0
  -3 -10  -9    7.61    1.85   0
  -3  -6 -11    1.61    1.44   0
  -3  -2 -11    0.12    1.21   0
  -3   0 -10    2.96    1.09   0
  -2 -12  -5   18.47    1.91   0
  -2  -8  -9  257.31    3.33   0
  -2  -3 -10 1017.44    5.20   0
  -1 -11  -3   67.89    1.88   0
  -1  -7  -7    9.52    1.11   0
  -6  -9  -5   40.07    2.12   0
  -6  -8  -6    2.65    1.85   0
  -5 -11  -6    1.40    1.81   0
  -5 -10  -7  140.97    3.28   0
  -5  -9  -8   10.62    2.00   0
  -4 -15   1  137.37    3.13   0
  -4 -12  -6   -1.11    1.96   0
  -4  -8 -10   -0.34    1.81   0
  -4  -5 -11   23.44    1.89   0
  -4  -4 -11  297.92    3.87   0
  -3 -15   1   24.17    2.13   0
  -3 -12  -6    0.34    1.73   0
  -3  -5 -11   18.60    1.59   0
  -3  -4 -11    4.93    1.34   0
  -3  -3 -11    1.59    1.22   0
  -2 -11  -6   -2.42    1.61   0
  -2  -9  -8  382.27    4.04   0
  -2  -5 -10  777.05    4.95   0
  -2  -4 -10    0.70    1.03   0
  -1 -10  -4  265.85    2.98   0
  -1  -8  -6  197.50    2.49   0
  -7  -5  -2    0.04    1.25   0
  -6  -3  -7    4.48    1.99   0
  -5 -13  -2    1.15    1.75   0
  -5 -12  -4   70.77    2.59   0
  -5  -7  -9   11.19    2.03   0
  -5  -1  -9   30.77    2.08   0
  -4 -15   2    6.66    2.19   0
  -4 -13  -4    2.10    2.04   0
  -4 -11  -7   13.17    2.08   0
  -4 -10  -8   15.90    2.06   0
  -4  -1 -10  134.22    2.74   0
  -3 -14  -2   12.75    2.09   0
  -3 -11  -7  465.89    5.11   0
  -3  -9  -9   55.51    2.28   0
  -2 -13  -2   17.40    2.15   0
  -2 -12  -4   50.41    2.40   0
  -2 -10  -7    4.51    1.51   0
  -2  -7  -9   -0.68    1.21   0
  -1  -9  -5  159.79    2.34   0
  -6  -8  -5    1.87    2.08   0
  -6  -7  -6   -0.02    1.81   0
  -5 -11  -5    2.06    1.77   0
  -5  -6  -9    9.92    2.06   0
  -4 -15   3    8.11    2.18   0
  -4 -14  -1   11.61    2.23   0
  -3 -14  -1   40.27    2.56   0
  -3 -10  -8   65.61    2.15   0
  -3  -1 -10   -0.30    1.09   0
  -1 -11  -2  276.54    3.04   0
  -7  -5  -1    2.07    1.64   0
  -7  -4  -1   10.70    1.80   0
  -6  -9  -4    7.52    1.77   0
  -5 -13  -1   -0.57    1.74   0
  -5 -12  -3  122.62    3.08   0
  -5  -9  -7   13.34    2.07   0
  -5  -5  -9   14.51    2.12   0
  -4 -12  -5    3.92    2.04   0
  -4  -8  -9  155.84    3.36   0
  -4  -5 -10  404.10    4.49   0
  -4  -2 -10  333.89    3.81   0
  -3 -12  -5   21.61    2.10   0
  -3  -6 -10    6.31    1.45   0
  -2  -8  -8  132.56    2.50   0
  -1 -10  -3  472.50    3.76   0
  -6 -11   0   43.67    2.23   0
  -6  -7  -5   14.62    2.05   0
  -6  -5  -6   -0.26    1.99   0
  -6  -4  -6   14.70    2.17   0
  -6  -3  -6    3.12    2.07   0
  -5 -14   3    5.19    1.71   0
  -5  -7  -8    7.31    2.02   0
  -5  -1  -8    1.02    2.03   0
  -4 -15   4    4.26    1.94   0
  -4 -11  -6   -0.69    1.91   0
  -4  -4 -10   45.53    2.08   0
  -3 -11  -6   16.84    1.96   0
  -3  -9  -8  207.92    3.49   0
  -3  -5 -10    9.22    1.41   0
  -3  -4 -10    5.01    1.33   0
  -3  -3 -10   31.18    1.52   0
  -2 -13  -1  557.64    4.99   0
  -2 -12  -3    8.46    1.72   0
  -2 -10  -6  118.42    2.54   0
  -2  -9  -7   26.26    1.38   0
  -1  -9  -4  399.69    3.39   0
  -6  -9  -3    3.45    1.77   0
  -6  -8  -4   31.92    2.18   0
  -6  -6  -5    2.69    2.24   0
  -5 -11  -4   43.56    2.39   0
  -5  -9  -6    5.01    1.97   0
  -5  -8  -7  205.34    3.92   0
  -4 -13  -2   56.03    2.73   0
  -4 -12  -4   15.46    2.27   0
  -4  -7  -9   22.82    1.98   0
  -3 -13  -2   66.96    2.88   0
  -3 -12  -4    4.71    1.83   0
  -3  -7  -9   42.08    1.94   0
  -2  -7  -8  787.83    5.19   0
  -6 -11   1    1.86    1.62   0
  -6 -10  -1   55.97    2.29   0
  -6  -5  -5   -0.19    2.26   0
  -6  -2  -5    1.08    2.25   0
  -5 -14   5   -2.12    1.61   0
  -5 -13   1   -1.77    1.77   0
  -5  -3  -8    0.33    1.90   0
  -4 -14   1    9.83    2.11   0
  -4 -11  -5    0.32    2.11   0
  -4  -8  -8   35.70    2.23   0
  -4  -6  -9  250.33    3.80   0
  -4  -1  -9 1038.79    6.15   0
  -3 -14   1   40.87    2.40   0
  -3  -8  -8   18.79    1.76   0
  -3  -6  -9    0.16    1.32   0
  -3  -1  -9  840.74    4.82   0
  -2 -12  -2  252.87    3.69   0
  -2 -10  -5   16.37    1.58   0
  -2  -8  -7  559.99    4.57   0
  -1 -10  -2   27.37    1.58   0
  -7  -5   1    3.03    1.54   0
  -6  -9  -2   11.71    1.92   0
  -6  -8  -3   48.01    2.42   0
  -6  -7  -4   22.02    2.15   0
  -6  -4  -5   23.62    2.33   0
  -6  -3  -5    5.53    2.18   0
  -5 -14   7    0.56    1.67   0
  -5 -12  -1   17.60    2.07   0
  -5 -11  -3   14.73    2.04   0
  -5  -8  -6   27.55    2.35   0
  -5  -7  -7    1.44    1.51   0
  -4 -14   2   91.64    2.98   0
  -4 -12  -3    7.11    2.21   0
  -4 -10  -6   65.69    2.71   0
  -4  -5  -9   46.64    2.14   0
  -4  -2  -9   12.35    1.60   0
  -3 -13  -1   17.43    2.40   0
  -3 -10  -6  115.99    2.91   0
  -3  -9  -7   39.68    2.12   0
  -3  -5  -9   84.33    2.15   0
  -7  -4   1   10.05    1.74   0
  -6 -11   2   36.66    1.96   0
  -6 -10   0   62.19    2.43   0
  -5 -13   2   -0.07    1.74   0
  -5  -9  -5    4.40    2.08   0
  -5  -6  -7  505.84    5.71   0
  -5  -1  -7    0.85    1.85   0
  -4 -14   3    4.34    2.35   0
  -4 -11  -4    7.33    2.12   0
  -4   0  -8  114.41    2.34   0
  -3 -14   2   11.50    2.08   0
  -3 -12  -3    4.64    1.87   0
  -3  -7  -8  287.87    3.70   0
  -3  -4  -9   -0.21    1.19   0
  -3  -3  -9   97.74    2.05   0
  -2 -13   1  543.13    4.89   0
  -2 -11  -3  309.71    3.81   0
  -2  -7  -7  124.44    2.31   0
  -7  -5   2    1.01    1.60   0
  -6 -11   3    5.32    1.67   0
  -6  -9  -1    4.73    1.84   0
  -6  -8  -2    5.20    1.94   0
  -6  -7  -3    0.82    1.98   0
  -6  -2  -4   15.71    2.46   0
  -5 -13   3    5.47    1.86   0
  -5 -11  -2    0.72    1.88   0
  -5  -7  -6   13.29    2.22   0
  -5  -5  -7    1.32    2.07   0
  -5  -2  -7   17.85    2.18   0
  -4 -10  -5    4.91    2.00   0
  -4  -8  -7   23.46    2.00   0
  -3 -11  -4  603.16    5.73   0
  -3  -8  -7   -1.34    1.46   0
  -3   0  -8  112.38    1.91   0
  -2 -12  -1  104.05    2.62   0
  -2 -10  -4    2.00    1.38   0
  -2  -8  -6  178.72    2.75   0
  -1 -10  -1  201.42    2.65   0
  -7  -4   2   -0.19    1.67   0
  -6 -11   4    7.87    1.68   0
  -6  -4  -4    5.09    2.17   0
  -6  -3  -4   41.01    2.51   0
  -5 -12   1   14.23    2.00   0
  -5 -10  -3   59.88    2.75   0
  -5  -8  -5  466.12    5.68   0
  -5  -3  -7    1.03    1.91   0
  -4 -14   4    0.34    2.12   0
  -4  -1  -8   49.32    1.94   0
  -3 -12  -2    3.70    1.97   0
  -3 -10  -5    7.57    1.83   0
  -3  -9  -6 1062.68    7.08   0
  -3  -6  -8    5.39    1.38   0
  -2 -13   2   19.66    1.99   0
  -2  -9  -5   20.92    1.56   0
  -2  -6  -7  147.93    2.37   0
  -4 -13   6    5.28    2.32   0
  -4 -10  -1   62.50    2.77   0
  -3 -14   8   17.38    2.61   0
  -3 -14   9   65.49    3.24   0
  -3 -13  21    1.56    1.82   0
  -3 -10  -2   -0.24    1.87   0
  -3  -8  -4    0.26    1.54   0
  -2 -14  12   26.66    2.67   0
  -2 -14  13   20.61    2.59   0
  -2 -13   5   24.09    2.49   0
  -1 -13  12    3.34    2.59   0
  -1 -13  13   10.98    2.71   0
  -1 -12   6  391.61    4.92   0
  -1 -11   3   63.35    2.37   0
  -1 -10   1  205.21    3.19   0
   0 -10   7  214.68    3.17   0
  -6 -10   8    6.34    1.55   0
  -5 -11   3   12.33    2.44   0
  -5 -10   1    0.01    2.26   0
  -4 -14  13   -0.36    1.97   0
  -4 -14  14    2.22    1.94   0
  -4 -14  15    7.36    1.86   0
  -4 -13   5    3.62    2.35   0
  -4 -12   2   69.82    3.17   0
  -3 -14   7    1.30    2.48   0
  -3 -12   1   63.39    3.02   0
  -3 -11  -1    6.60    2.05   0
  -2 -14   9    3.68    2.34   0
  -2 -14  10   71.80    3.17   0
  -2 -14  15    1.81    2.30   0
  -2 -14  16    1.89    2.52   0
  -2 -11   0  725.71    6.27   0
  -1 -13  11    2.57    2.24   0
  -1 -12   5  305.98    4.45   0
   0 -10   6  232.18    3.24   0
  -5 -13  10    1.12    1.86   0
  -5 -13  11    6.03    1.87   0
  -5 -13  12    4.47    1.70   0
  -4 -14   8   35.64    2.56   0
  -4 -14   9   25.24    2.45   0
  -4 -14  16    1.36    1.77   0
  -4 -13   4    3.09    2.35   0
  -4  -9  -3   13.14    2.01   0
  -2 -14   8    5.32    2.32   0
  -2 -14  17    1.08    2.24   0
  -2 -13   4   17.39    2.30   0
  -2 -10  -2   35.27    2.05   0
  -2  -9  -3   36.47    1.83   0
  -2  -8  -4  184.29    2.82   0
  -1 -13   8    4.61    2.24   0
  -1 -13   9   -0.10    2.15   0
  -1 -13  16   -1.07    2.28   0
  -1 -11   2  280.08    3.92   0
  -1  -8  -2  421.66    3.77   0
  -5 -13   8    4.77    2.19   0
  -5 -13   9    1.06    1.86   0
  -5 -11   2    1.72    2.24   0
  -5  -9  -1   -0.50    2.27   0
  -4 -12   1   69.70    3.07   0
  -4 -10  -2    5.24    2.09   0
  -3 -14   5    8.96    2.49   0
  -3 -14  19   -0.78    1.94   0
  -3 -10  -3   -1.14    1.88   0
  -3  -9  -4 1273.92    7.58   0
  -3  -6  -6   10.37    1.54   0
  -2 -14  18    6.59    2.47   0
  -2 -13   3   28.14    2.50   0
  -2 -11  -1  344.46    4.54   0
  -1 -13   7  218.78    4.15   0
  -5 -13   7    6.14    1.98   0
  -4 -14   6    1.46    2.24   0
  -3 -15  10   72.33    3.24   0
  -3 -15  11   69.35    3.11   0
  -3 -15  12   -0.25    2.22   0
  -3 -15  13   57.95    2.88   0
  -3 -15  14    5.68    2.14   0
  -3  -8  -5    4.67    1.57   0
  -2 -14   6   11.94    2.44   0
  -1 -13   6   51.91    2.70   0
  -1 -12   3  195.93    3.72   0
  -1 -11   1    3.02    1.67   0
  -5 -13   6    0.91    1.91   0
  -5 -11   1    0.68    2.32   0
  -4 -14   5    0.37    2.20   0
  -4 -13   2   50.33    2.92   0
  -4 -12   0   39.98    2.81   0
  -3 -15   8   15.07    2.54   0
  -3 -15   9  145.78    3.92   0
  -3 -15  15   80.59    2.98   0
  -3 -14   4    3.24    2.40   0
  -3 -12  -1   57.35    2.79   0
  -3  -7  -6 1375.96    6.88   0
  -2 -15  12   34.62    3.01   0
  -2 -14   5    0.65    2.27   0
  -2 -12   0    2.91    1.46   0
  -2 -10  -3   60.98    2.28   0
  -2  -9  -4  169.27    2.94   0
  -1 -13   5   62.55    2.76   0
  -1  -9  -2   58.75    1.88   0
  -1  -8  -3  542.52    4.27   0
  -5 -10  -1   -0.73    2.60   0
  -4 -15  11   94.86    3.01   0
  -4 -15  12    7.30    1.96   0
  -4 -15  13   11.27    1.85   0
  -4  -8  -5    6.98    1.94   0
  -3 -15   7  177.87    4.25   0
  -2 -15   9  103.94    3.49   0
  -2 -15  10   24.60    2.67   0
  -2 -15  11  170.42    4.00   0
  -2 -15  14   27.83    2.61   0
  -2 -14   4   39.38    2.77   0
  -2  -8  -5  336.65    3.66   0
  -1 -14  10   49.38    2.92   0
  -1 -14  12  123.84    3.56   0
  -1 -14  13    6.22    2.40   0
  -1 -14  14  173.94    3.90   0
  -5 -12   2   43.58    2.72   0
  -4 -15   8    3.34    2.04   0
  -4 -15   9   20.38    2.29   0
  -4 -14   4    0.35    2.14   0
  -4 -13   1  112.01    3.55   0
  -3 -14   2   10.11    2.36   0
  -3 -11  -3  105.10    3.12   0
  -3  -9  -5  324.44    4.05   0
  -2 -15   8    1.46    2.36   0
  -2 -15  16    1.25    2.19   0
  -2 -12  -1   96.72    3.03   0
  -1 -14   8  132.10    3.67   0
  -1 -14  15   -0.11    2.31   0
  -1 -13   4    0.90    2.14   0
   0 -12   9  426.15    4.90   0
   0 -10   3  154.80    2.72   0
  -5 -14   9   32.38    2.13   0
  -5 -13   4   21.37    2.42   0
  -4 -15   7   21.89    2.41   0
  -4 -14   3    1.96    2.31   0
  -3 -12  -2    3.04    2.13   0
  -3  -8  -6   27.87    1.84   0
  -2 -15   6    0.56    2.37   0
  -2 -15  17   12.09    2.44   0
  -2 -13   0  182.12    3.98   0
  -2 -11  -3  300.61    4.29   0
  -2 -10  -4    2.19    1.69   0
  -2  -9  -5   19.06    1.68   0
  -2  -7  -6  484.00    4.03   0
  -1 -14   7   45.32    2.87   0
  -1 -13   3  322.60    4.76   0
  -1  -9  -3   71.99    2.07   0
   0 -12   8  726.95    6.15   0
  -5 -14   7   -1.75    1.73   0
  -4 -15   6   -0.88    2.12   0
  -4 -13   0  108.70    3.46   0
  -4 -10  -4   73.81    2.67   0
  -4  -9  -5    1.12    1.74   0
  -3 -16  11   12.32    2.29   0
  -3 -16  12    3.79    2.04   0
  -3 -15   4   -0.01    2.40   0
  -3 -10  -5    7.10    1.88   0
  -2 -15   5    1.95    2.27   0
  -2 -12  -2  255.37    4.25   0
  -1 -11  -1    4.73    1.65   0
  -1  -8  -4   47.66    1.78   0
   0 -12   7    3.32    2.05   0
   0 -10   2  543.92    4.70   0
  -5 -14   6   68.09    2.54   0
  -5 -13   3    4.04    2.08   0
  -5 -11  -1    3.06    2.36   0
  -4 -15   5    0.08    2.14   0
  -4 -12  -2   70.04    3.01   0
  -3 -16   8   -0.29    2.19   0
  -3 -16   9    8.47    2.30   0
  -3 -16  10    0.09    2.05   0
  -3 -16  13   17.45    2.20   0
  -3 -16  14   -0.79    2.02   0
  -3 -15   3  133.81    3.83   0
  -3 -12  -3    6.55    2.27   0
  -3  -9  -6 1083.66    6.98   0
  -3  -7  -7   18.51    1.59   0
  -2 -15   4    1.40    2.28   0
  -1 -14   5   33.44    2.74   0
  -1 -13   2    2.41    2.18   0
   0 -12   6   32.19    2.26   0
  -5 -13   2    0.12    2.39   0
  -4 -15   4    3.23    2.19   0
  -4 -14   1   10.51    2.43   0
  -3 -16   7    3.04    2.31   0
  -3 -13  -2   70.27    3.17   0
  -2 -16   9   41.14    2.83   0
  -2 -16  11   14.18    2.44   0
  -2 -16  13   18.81    2.46   0
  -2 -13  -1  497.92    5.72   0
  -2 -11  -4  113.34    3.06   0
  -2 -10  -5   19.04    1.90   0
  -1 -15  10   13.72    2.59   0
  -1 -15  11    9.94    2.51   0
  -1 -15  12   20.93    2.65   0
  -1 -15  13   30.20    2.95   0
  -1 -14   4  212.86    4.31   0
  -1  -9  -4  408.29    4.10   0
   0 -10   1 2524.22    9.77   0
  -4 -15   3    8.70    2.59   0
  -4 -12  -3    5.66    2.20   0
  -4 -10  -5    5.70    1.94   0
  -3 -16   6    2.21    2.25   0
  -3 -15   2    9.40    2.56   0
  -3  -8  -7   -0.01    1.54   0
  -2 -16   7    1.84    2.29   0
  -2 -16   8   22.69    2.63   0
  -2 -16  14   16.14    2.36   0
  -2 -16  15    5.60    2.37   0
  -2 -15   3   32.64    2.79   0
  -2 -14   0   12.36    2.40   0
  -2  -9  -6   87.22    2.44   0
  -2  -7  -7  127.00    2.36   0
  -1 -15  14    9.96    2.44   0
  -1 -14   3   32.56    2.68   0
  -1 -13   1   17.46    2.21   0
  -1 -12  -1    3.10    1.95   0
   0 -12   4   52.25    2.40   0
  -5 -14   4   58.55    2.61   0
  -5 -13   1   -0.11    2.39   0
  -4 -16   7    2.12    1.99   0
  -4 -16   8   16.69    2.04   0
  -4 -14   0   26.80    2.63   0
  -3 -15   1   22.74    2.61   0
  -3 -12  -4    0.41    2.20   0
  -3 -10  -6  120.29    3.04   0
  -2 -16   6    1.05    2.37   0
  -2 -16  16    0.75    2.27   0
  -2 -15   2   15.01    2.65   0
  -2 -13  -2   17.05    2.38   0
  -1  -8  -5 5401.93   13.34   0
   0 -10   0  327.39    3.83   0
  -5 -14   3    3.97    2.04   0
  -5 -12  -1   16.95    2.49   0
  -4 -16   6    0.52    2.03   0
  -4 -15   2    6.06    2.36   0
  -3 -16   4   -0.94    2.34   0
  -3  -9  -7   44.73    2.27   0
  -2 -14  -1   42.06    2.79   0
  -2 -12  -4   58.37    2.72   0
  -2 -11  -5   16.31    2.06   0
  -1 -15   5   71.66    3.28   0
  -1 -11  -3   68.21    2.46   0
  -4 -16   5    0.19    1.98   0
  -4 -14  -1    9.41    2.42   0
  -4 -12  -4   13.48    2.38   0
  -4 -11  -5   -1.95    2.04   0
  -4 -10  -6   55.63    2.74   0
  -3 -17   9    7.30    2.23   0
  -3 -17  10   13.21    2.26   0
  -3 -17  11    7.83    2.14   0
  -3 -17  12    2.82    1.88   0
  -3 -16   3    4.31    2.36   0
  -3 -14  -2   14.88    2.57   0
  -3 -12  -5   19.81    2.78   0
  -3  -7  -8  281.20    3.38   0
  -2 -16   4    3.31    2.50   0
  -1 -15   4   12.17    2.58   0
  -1 -14   1   12.18    2.45   0
  -1 -13  -1   15.44    2.23   0
   0 -12   2  976.55    7.14   0
  -5 -14   2    5.78    2.15   0
  -4 -16   4    0.80    2.03   0
  -4 -15   1  125.98    3.51   0
  -4 -13  -3   40.60    2.78   0
  -3 -17   7   48.57    2.77   0
  -3 -17   8   28.56    2.45   0
  -3 -17  13    3.73    1.57   0
  -3 -17  13    0.47    1.01   0
  -3 -11  -6   16.75    2.21   0
  -3  -8  -8   19.21    2.08   0
  -2 -16   3   78.58    3.40   0
  -2 -14  -2   34.59    2.78   0
  -1 -16   9   -0.04    2.79   0
  -1 -16  11    5.31    2.85   0
  -1 -11  -4  152.34    3.22   0
  -1  -8  -6  193.83    2.88   0
   0 -14   9  160.60    4.07   0
   0 -14  10  584.32    6.17   0
   0 -10  -1 2555.61   10.09   0
  -4 -16   3    2.10    2.03   0
  -4 -15   0   10.85    2.38   0
  -3 -14  -3   26.86    2.79   0
  -2 -17   7   13.81    2.44   0
  -2 -17   8    4.70    2.32   0
  -2 -17   9   69.72    2.99   0
  -2 -17  12    4.00    2.21   0
  -2 -17  13   16.28    2.29   0
  -2 -16   2   18.37    2.67   0
  -2 -13  -4   18.73    2.45   0
  -2 -12  -5   21.31    2.32   0
  -2 -11  -6    1.72    1.95   0
  -2  -7  -8  845.29    5.41   0
  -1 -16   7   20.28    2.83   0
  -1 -16  12   97.47    3.39   0
  -1 -16  13   14.15    2.56   0
  -1 -15   3   46.90    2.88   0
  -1 -10  -5  840.10    6.27   0
   0 -14   7   19.68    2.59   0
   0 -14   8  419.14    5.41   0
  -5 -14   1   40.88    2.47   0
  -5 -13  -1   -1.44    2.22   0
  -4 -12  -5    4.29    2.30   0
  -4 -11  -6    1.85    2.09   0
  -3 -17   5  149.33    3.87   0
  -3 -16   1   10.69    2.51   0
  -3  -9  -8  209.04    3.49   0
  -2 -17   6    6.28    2.42   0
  -2 -17  14    1.73    2.04   0
  -2 -15  -1  467.21    6.30   0
  -2 -14  -3    1.96    2.29   0
  -2 -10  -7    6.32    1.82   0
  -1 -15   2    0.53    2.46   0
  -1 -13  -2    1.69    1.58   0
   0 -14   6    0.08    2.30   0
  -4 -16   2   31.98    2.43   0
  -4 -13  -4    0.36    2.17   0
  -3 -15  -2   11.31    2.63   0
  -3 -11  -7  471.18    5.41   0
  -2 -17   5    6.32    2.38   0
  -2 -17  15    0.22    1.88   0
  -2 -16   1   13.88    2.69   0
  -1 -16   5   -3.54    2.56   0
  -1 -15   1   37.65    2.94   0
  -1 -12  -4  413.31    5.22   0
  -1 -11  -5  235.67    3.89   0
  -1  -7  -7    8.88    1.37   0
   0 -14   5   -1.37    2.33   0
   0 -12   0   95.81    2.93   0
  -4 -17   5    1.64    1.78   0
  -4 -16   1    2.51    2.14   0
  -4 -14  -3    1.01    2.34   0
  -3 -14  -4    3.82    2.38   0
  -3 -10  -8   68.77    2.65   0
  -2 -17   4    3.13    2.33   0
  -2 -15  -2   18.38    2.65   0
  -2 -12  -6   14.05    2.27   0
  -1 -16   4  101.48    3.67   0
  -1 -10  -6   92.09    2.61   0
  -1  -8  -7  219.79    3.13   0
  -4 -17   4    1.65    1.81   0
  -4 -13  -5    2.08    2.60   0
  -4 -12  -6    1.79    2.20   0
  -3 -18   8    3.91    1.93   0
  -3 -18   9    2.30    1.98   0
  -3 -17   2    1.03    2.36   0
  -3 -16  -1    9.05    2.55   0
  -3 -15  -3  130.76    3.91   0
  -3 -12  -7    2.76    2.58   0
  -3  -8  -9   19.45    1.90   0
  -2 -17   3   19.61    2.63   0
  -2  -6  -9  378.57    3.66   0
  -1 -16   3   -0.31    2.60   0
  -1 -14  -2  356.32    5.42   0
   0 -14   3   19.91    2.58   0
   0 -12  -1  382.60    4.91   0
   0 -10  -3  171.76    3.07   0
   0  -8  -4   11.89    1.43   0
  -4 -17   3    2.22    2.11   0
  -4 -16   0   60.03    2.83   0
  -4 -14  -4    3.43    2.36   0
  -4 -11  -7   11.11    2.25   0
  -3 -18   6   -0.10    2.05   0
  -3 -18   7    2.37    1.96   0
  -3 -17   1   11.95    2.55   0
  -3 -14  -5   12.09    2.67   0
  -2 -18   8   27.30    2.46   0
  -2 -18   9    6.92    2.26   0
  -2 -17   2    2.81    2.43   0
  -2 -16  -1   12.93    2.65   0
  -2 -15  -3   33.90    2.82   0
  -2 -13  -6    1.81    2.27   0
  -2 -12  -7  107.50    3.31   0
  -2  -8  -9  251.51    3.51   0
  -2  -7  -9    0.68    1.40   0
  -1 -17   8   15.56    2.65   0
  -1 -17   9    4.60    2.52   0
  -1 -17  10    2.09    2.53   0
  -1 -17  11    0.05    2.40   0
  -1 -17  12    1.74    2.64   0
  -1 -13  -4    4.71    2.26   0
  -1 -11  -6  365.68    4.76   0
   0 -14   2  455.27    5.85   0
  -3 -18   5    7.39    2.21   0
  -3 -16  -2    4.01    2.52   0
  -3 -15  -4    7.07    2.63   0
  -2 -18   6    3.21    2.29   0
  -2 -18   7    1.27    2.13   0
  -2 -18  12    2.56    2.00   0
  -2 -14  -5    1.07    2.34   0
  -2  -9  -9   57.32    2.33   0
  -1 -17   5  146.09    4.04   0
  -1 -17   6    6.84    2.64   0
  -1 -16   1   60.56    3.39   0
  -1 -10  -7  512.77    5.25   0
   1 -10   3  434.08    4.39   0
  -4 -17   2    2.65    1.98   0
  -4 -16  -1    3.03    2.22   0
  -4 -15  -3    6.40    2.40   0
  -4 -13  -6    5.03    2.58   0
  -3 -10  -9    8.64    2.10   0
  -2 -18   5    0.73    2.30   0
  -2 -16  -2   19.31    2.78   0
  -2 -15  -4    0.81    2.45   0
  -1 -17   4    2.80    2.63   0
  -1 -15  -2    1.47    2.45   0
  -1 -13  -5   60.67    2.98   0
  -1 -12  -6  375.24    5.21   0
  -1  -8  -8   58.59    2.04   0
   0 -14   1  104.49    3.72   0
   0 -10  -4   60.11    1.97   0
  -4 -17   1   67.88    2.67   0
  -4 -14  -5    1.73    2.31   0
  -3 -17  -1   11.78    2.50   0
  -3 -16  -3    3.42    2.51   0
  -3 -15  -5  162.87    4.49   0
  -3 -14  -6   13.72    2.62   0
  -3 -12  -8   -1.86    2.22   0
  -2 -18   3   27.71    2.94   0
  -2 -18   4   13.65    2.39   0
  -2 -17   0  185.40    4.42   0
  -2 -14  -6   12.75    2.57   0
  -2 -13  -7   25.46    2.68   0
  -1 -17   3   16.54    2.83   0
  -1 -11  -7   19.00    2.18   0
  -1  -9  -8  353.45    4.24   0
   0 -14   0 1092.81    8.87   0
   1 -10   2   28.04    1.90   0
   1  -9   1   40.98    1.80   0
  -4 -15  -4    1.96    2.31   0
  -3 -18   2    1.03    2.24   0
  -3 -11  -9   18.17    2.40   0
  -3  -9 -10   25.84    2.39   0
  -2 -16  -3   72.83    3.33   0
  -2 -15  -5    5.64    2.55   0
  -1 -15  -3   49.70    3.24   0
  -1 -10  -8  139.52    3.19   0
   0 -16   9   -0.03    2.64   0
   0 -10  -5    0.49    1.59   0
  -4 -17   0    3.88    2.09   0
  -3 -18   1    6.05    2.32   0
  -3 -17  -2    0.57    2.43   0
  -3 -16  -4   -0.14    2.54   0
  -3 -13  -8  114.50    3.67   0
  -2 -18   2    5.04    2.30   0
  -2 -11  -9   27.17    2.44   0
  -2  -9 -10  700.97    6.02   0
  -1 -18   7   28.72    3.08   0
  -1 -18   8   23.01    2.70   0
  -1 -18   9    2.37    2.70   0
  -1 -17   1    3.51    2.60   0
  -1 -12  -7  188.67    4.05   0
   0 -16   5    1.56    2.68   0
   0 -16   6   54.28    3.33   0
   0 -14  -1  127.17    3.91   0
   0  -8  -6   65.13    2.08   0
   1 -12   4  383.94    4.80   0
   1 -11   2  282.61    3.97   0
   1 -10   1  209.58    3.28   0
  -4 -16  -3    0.70    2.23   0
  -4 -14  -6    0.58    2.33   0
  -3 -15  -6   -0.53    2.63   0
  -3 -12  -9   23.52    2.61   0
  -3 -10 -10    5.62    2.13   0
  -2 -19   7    3.92    2.30   0
  -2 -18   1    2.79    2.34   0
  -2 -17  -2    2.56    2.51   0
  -2 -16  -4    5.73    2.55   0
  -2 -13  -8   49.62    3.06   0
  -2 -10 -10    3.45    2.03   0
  -1 -18   5    1.81    2.64   0
  -1 -18  10    0.11    2.35   0
  -1 -18  11   -0.50    2.29   0
  -1 -16  -2  132.51    4.16   0
  -1 -11  -8   52.79    2.65   0
  -1  -8  -9   97.63    2.47   0
  -1  -7  -9   -0.79    1.36   0
   0 -16   4  158.83    4.35   0
   0 -12  -4   54.11    2.30   0
   1 -12   3  198.98    3.84   0
  -4 -15  -5    1.11    2.32   0
  -3 -17  -3   72.22    3.33   0
  -3 -16  -5    1.22    2.50   0
  -3 -11 -10    7.65    2.60   0
  -2 -19   5    1.36    2.17   0
  -2 -19   6    0.86    2.11   0
  -2 -18   0   24.97    2.68   0
  -2 -17  -3   22.07    2.72   0
  -2 -12  -9  277.64    4.77   0
  -1 -18   4  135.55    4.03   0
  -1 -14  -6  332.27    5.55   0
  -1 -13  -7  207.73    4.47   0
  -1  -9  -9   13.05    1.78   0
   0 -14  -2  455.94    6.15   0
   1 -11   1    5.08    1.90   0
  -4 -16  -4   -1.06    2.43   0
  -3 -18  -1    6.51    2.40   0
  -3 -14  -8   17.56    2.80   0
  -3 -13  -9    2.99    2.92   0
  -2 -19   4   -1.77    2.18   0
  -2 -16  -5   15.88    2.69   0
  -1 -17  -1    5.31    2.75   0
  -1 -10  -9  280.15    4.24   0
   0 -16   2   66.40    3.59   0
   0 -12  -5  127.29    3.47   0
   1  -9  -1   40.20    1.58   0
  -4 -15  -6    1.02    2.59   0
  -4 -14  -7    2.02    2.41   0
  -4 -13  -8   64.63    3.13   0
  -3 -17  -4   15.67    2.70   0
  -2 -19   3   29.98    2.52   0
  -2 -17  -4    3.73    2.42   0
  -2 -15  -7  115.32    3.88   0
  -2 -13  -9  332.27    5.39   0
  -2  -8 -11  196.59    3.41   0
  -2  -7 -11   78.55    2.34   0
  -1 -18   2   27.70    2.85   0
  -1 -11  -9   26.14    2.43   0
   0 -16   1   18.70    3.12   0
   0  -8  -7  443.42    4.38   0
   1 -13   3  309.48    4.78   0
   1 -12   1    2.18    2.11   0
  -3 -18  -2    0.19    2.34   0
  -3 -16  -6    5.18    2.55   0
  -3 -10 -11   -0.68    2.20   0
  -2 -19   2   22.18    2.44   0
  -2 -16  -6    2.27    2.60   0
  -2 -10 -11  135.74    3.46   0
  -1 -18   1   30.23    2.90   0
  -1  -9 -10    0.30    1.75   0
  -1  -8 -10   18.23    1.81   0
   0 -16   0  477.67    6.76   0
   0 -14  -4    3.60    2.57   0
   0 -12  -6   33.04    2.61   0
   0 -10  -7  195.78    3.63   0
   1 -11  -1    6.36    2.00   0
  -4 -17  -3   -0.34    1.65   0
  -4 -17  -3    1.14    1.11   0
  -4 -16  -5    0.98    2.25   0
  -3 -11 -11   67.34    3.04   0
  -2 -19   1   24.86    2.48   0
  -2 -17  -5    6.82    2.54   0
  -2 -15  -8    3.87    2.58   0
  -2 -14  -9    4.99    2.65   0
  -2 -11 -11  169.76    3.93   0
  -1 -19   6    2.72    2.42   0
  -1 -19   7   28.60    2.66   0
  -1 -19   9    4.70    2.52   0
  -1 -17  -3   17.88    2.99   0
  -1 -12  -9    3.88    2.30   0
  -1 -10 -10   32.09    2.39   0
   0 -16  -1   25.59    3.28   0
   1 -14   5   32.81    2.95   0
   1 -10  -2   29.65    2.06   0
  -4 -15  -7   18.33    2.78   0
  -4 -14  -8   35.41    2.86   0
  -3 -18  -3   -1.31    2.21   0
  -3 -16  -7    1.55    2.73   0
  -3 -13 -10    1.14    2.62   0
  -2 -19   0   26.90    2.63   0
  -2 -18  -3   30.96    2.71   0
  -2 -16  -7    2.44    2.61   0
  -2 -13 -10   63.65    3.30   0
  -1 -19   5    2.24    2.35   0
  -1 -18  -1   28.31    3.00   0
  -1 -14  -8  126.51    4.07   0
  -1 -11 -10    2.75    2.20   0
   0 -14  -5    1.75    2.63   0
   0  -8  -8    6.62    1.63   0
   1 -12  -1    0.95    2.15   0
   1 -11  -2  277.45    4.22   0
   1  -9  -3   67.78    2.28   0
   1  -8  -3  545.95    4.66   0
  -4 -17  -4    0.90    1.99   0
  -2 -19  -1   27.24    2.71   0
  -2 -18  -4   14.87    2.54   0
  -2  -9 -12  331.04    4.59   0
  -2  -8 -12   30.09    2.23   0
  -1 -19   2    1.32    2.78   0
  -1 -19   3    9.40    2.54   0
  -1 -17  -4    2.24    2.79   0
  -1 -16  -6  178.74    4.72   0
  -1 -13  -9    1.89    2.47   0
   0 -16  -2   76.84    3.77   0
   1 -14   2  357.88    5.47   0
   1 -10  -3  448.20    4.91   0
  -4 -16  -6    1.78    1.85   0
  -4 -16  -6   -0.06    1.20   0
  -3 -18  -4    0.23    2.24   0
  -3 -17  -6    9.54    2.54   0
  -3 -14 -10   44.81    3.04   0
  -2 -15  -9  103.14    3.86   0
  -2 -14 -10   68.81    3.49   0
  -2 -10 -12   16.42    2.42   0
  -2  -7 -12  732.84    5.68   0
  -1 -19   1    3.80    2.44   0
  -1 -18  -2   23.07    2.88   0
  -1 -12 -10    1.50    1.77   0
  -1 -10 -11    2.59    2.16   0
  -1  -9 -11    1.81    1.90   0
  -1  -7 -11    7.82    1.68   0
   0 -18   5    6.09    3.22   0
   0 -18   6   11.71    3.13   0
   0 -18   7   28.93    3.29   0
   0 -16  -3   25.53    3.15   0
   0 -14  -6    0.33    2.52   0
   1 -13  -1   15.63    2.57   0
   1 -12  -2  242.95    4.40   0
   1 -11  -3   71.86    2.76   0
   1  -9  -4  386.17    4.40   0
   1  -8  -4   39.58    1.94   0
  -3 -13 -11   16.38    2.76   0
  -2 -18  -5   -0.69    2.29   0
  -2 -16  -8   24.61    2.88   0
  -2 -11 -12  472.33    5.90   0
  -1 -18  -3   37.78    3.23   0
  -1 -16  -7   22.32    3.04   0
  -1 -15  -8   52.10    3.45   0
  -1 -14  -9   13.44    2.89   0
  -1 -13 -10   11.52    2.73   0
  -1 -11 -11   19.90    2.62   0
   0 -18   3    6.97    3.28   0
   0 -18   4   54.15    3.39   0
   1 -15   4    7.74    2.89   0
   1 -12  -3  193.79    4.14   0
   1 -10  -4  253.97    3.99   0
  -4 -15  -8    0.72    2.43   0
  -3 -18  -5    7.63    2.37   0
  -2 -19  -3   33.72    2.69   0
  -2 -17  -7   13.52    2.61   0
  -2 -12 -12    0.61    2.47   0
  -1  -6 -11    3.10    1.47   0
   0 -18   2  119.82    4.18   0
   0 -16  -4  173.28    4.83   0
   0 -10  -9 1062.56    8.01   0
   1 -15   2   -0.80    2.84   0
   1 -13  -2   -0.87    2.41   0
   1 -11  -4  151.69    3.57   0
  -4 -16  -7    1.15    1.84   0
  -4 -16  -7    1.48    1.22   0
  -3 -12 -12    2.14    2.53   0
  -2 -18  -6    3.11    2.40   0
  -2 -15 -10   26.72    3.06   0
  -2 -14 -11    6.33    2.79   0
  -1 -20   5    1.33    2.36   0
  -1 -19  -1    5.71    2.46   0
  -1 -18  -4  154.56    4.42   0
  -1 -15  -9   50.54    3.49   0
  -1 -14 -10   52.43    3.47   0
  -1 -12 -11   23.66    2.22   0
  -1  -9 -12    0.72    1.99   0
   0 -14  -7   19.62    3.07   0
   1 -12  -4  445.44    5.83   0
   1  -8  -5 5615.15   15.15   0
  -3 -18  -6    3.06    2.35   0
  -3 -14 -11   10.58    2.74   0
  -2 -19  -4   -0.76    2.25   0
  -2  -9 -13   25.63    2.42   0
  -2  -8 -13   10.33    2.10   0
  -1 -20   4   26.75    2.55   0
  -1 -19  -2    2.35    2.45   0
  -1 -18  -5    8.88    2.71   0
  -1 -16  -8   46.86    3.39   0
  -1 -13 -11    0.05    2.71   0
  -1 -11 -12   41.23    2.88   0
  -1 -10 -12    0.27    2.32   0
   0 -18   0   94.80    4.02   0
   0 -16  -5   12.69    3.12   0
   0 -12  -9  422.89    6.03   0
   1 -14  -2  349.85    5.74   0
   1 -11  -5  238.70    4.31   0
  -3 -13 -12   25.86    2.82   0
  -2 -18  -7    0.61    2.74   0
  -2 -11 -13  192.41    4.24   0
  -1 -20   2    1.67    2.37   0
  -1 -19  -3    9.58    2.51   0
  -1 -17  -7   10.47    2.84   0
  -1  -7 -12  166.83    3.17   0
   0 -18  -1   53.60    3.66   0
   0 -10 -10  218.48    4.16   0
   0  -8 -10    8.08    1.80   0
   1 -16   3   -1.28    2.96   0
   1 -14  -3   34.16    3.30   0
   1 -13  -4    3.55    2.66   0
   1 -12  -5  303.75    5.12   0
   1  -9  -6  119.82    2.97   0
  -2 -17  -9   73.45    3.40   0
  -2 -16 -10   97.98    3.77   0
  -1 -20   1    5.90    2.29   0
  -1 -16  -9    0.71    2.87   0
  -1 -15 -10   13.35    3.03   0
  -1  -6 -12   29.12    1.88   0
   0 -18  -2  115.32    4.25   0
   0 -12 -10  104.40    3.78   0
   1 -16   1   61.03    3.75   0
   1 -15  -2    2.43    2.88   0
   1 -11  -6  366.28    5.27   0
  -3 -17  -9    7.05    2.76   0
  -3 -16 -10   -0.82    2.38   0
  -3 -14 -12    1.71    2.45   0
  -1 -19  -4   27.94    2.92   0
  -1 -17  -8   16.51    2.97   0
  -1 -13 -12    1.25    2.80   0
  -1 -10 -13  646.54    6.91   0
   0  -6 -10  313.67    3.78   0
   1 -14  -4  209.63    4.96   0
   1 -13  -5   63.88    3.44   0
   1 -12  -6  421.29    5.95   0
   1  -7  -6  267.53    3.53   0
  -2 -19  -6   -1.78    2.21   0
  -2 -18  -8   30.88    2.84   0
  -2 -16 -11   13.92    3.19   0
  -2 -11 -14   13.09    3.01   0
  -2 -10 -14   17.85    2.55   0
  -2  -9 -14  220.00    4.11   0
  -2  -8 -14   77.21    3.12   0
  -1 -20  -1    3.93    2.29   0
  -1 -16 -10   85.46    3.91   0
  -1 -15 -11   13.41    3.13   0
  -1 -11 -13  128.95    3.91   0
  -1  -8 -13  156.69    3.43   0
   0 -18  -3   11.58    2.96   0
   0 -16  -7  106.05    4.27   0
   0 -10 -11  404.75    5.30   0
   0  -8 -11 1818.72    9.78   0
   1 -15  -3   43.73    3.40   0
   1 -11  -7   21.45    2.59   0
   1 -10  -7  530.53    5.92   0
   1  -9  -7   15.70    2.00   0
   1  -8  -7  237.37    3.70   0
  -2 -17 -10   39.62    3.07   0
  -2 -14 -13   26.21    2.97   0
  -1 -19  -5    2.16    2.39   0
  -1 -17  -9    2.93    2.75   0
  -1 -14 -12  131.15    4.37   0
  -1 -12 -13  126.81    4.14   0
  -1  -7 -13   -1.03    1.83   0
   0 -18  -4   66.00    3.72   0
   0 -14 -10  682.75    8.25   0
   1 -17   2   55.97    4.07   0
   1 -17   3   14.59    3.20   0
   1 -14  -5   35.87    3.34   0
   1 -13  -6   50.84    2.76   0
  -3 -17 -10   13.46    2.69   0
  -3 -16 -11   14.07    2.52   0
  -3 -15 -12    1.31    2.35   0
  -2 -19  -7    3.97    2.37   0
  -2 -18  -9    6.09    2.57   0
  -1 -20  -3   62.20    3.09   0
  -1 -19  -6    0.99    2.52   0
  -1 -18  -8   24.01    2.97   0
  -1 -13 -13    7.89    2.99   0
   0 -18  -5    9.94    3.46   0
   1 -17   1    0.15    3.05   0
   1 -16  -3    1.15    3.68   0
   1 -14  -6  348.30    6.17   0
   1 -13  -7  217.36    5.01   0
   1 -11  -8   51.67    2.98   0
   1 -10  -8  143.25    3.69   0
   1  -9  -8  373.45    4.90   0
  -3 -14 -13    1.91    2.25   0
  -2 -13 -14    4.73    2.77   0
  -1 -17 -10    2.66    2.84   0
  -1 -15 -12   23.36    3.27   0
  -1 -11 -14  239.80    4.98   0
  -1  -8 -14   14.22    2.64   0
   0  -8 -12   18.56    2.17   0
   1 -17  -1    0.99    3.51   0
   1 -15  -5   67.20    3.93   0
   1  -8  -8   59.43    2.44   0
  -2 -19  -8    3.92    2.33   0
  -2 -17 -11  195.33    4.49   0
  -2 -15 -13   77.06    3.61   0
  -2 -11 -15    2.08    2.67   0
  -2 -10 -15   -0.64    2.40   0
  -2  -9 -15    0.76    2.31   0
  -1 -20  -4   26.48    2.58   0
  -1 -18  -9    2.42    2.62   0
  -1 -14 -13    5.08    3.03   0
  -1 -12 -14  223.42    5.00   0
   0 -20   2   16.96    2.92   0
   0 -20   3   69.29    3.15   0
   0 -18  -6   11.52    3.06   0
   0 -12 -12  245.89    5.24   0
   1 -17  -2   55.08    4.16   0
   1 -16  -4  103.36    4.24   0
   1 -14  -7   50.27    3.69   0
   1 -13  -8    3.16    2.81   0
   1 -10  -9  297.14    4.89   0
   1  -7  -8  149.01    3.01   0
   2  -9   1   95.43    2.70   0
  -3 -16 -12    1.36    2.23   0
  -2 -18 -10   -3.43    2.42   0
  -2 -14 -14   10.62    2.85   0
  -2 -12 -15    8.34    2.82   0
  -1 -20  -5    3.01    2.29   0
  -1 -13 -14    4.51    2.98   0
  -1  -7 -14  462.30    5.14   0
   0 -20   0   -0.71    2.78   0
   0 -20   1   28.84    2.90   0
   1 -16  -5    1.21    3.15   0
   1 -11  -9   24.63    2.86   0
   1  -9  -9   12.09    2.11   0
   2 -12   0    0.50    3.02   0
   2 -10  -1  218.17    3.96   0
  -3 -17 -11    5.33    2.22   0
  -2 -13 -15    3.34    3.08   0
  -1 -19  -8   22.71    2.82   0
  -1 -17 -11    2.05    2.78   0
  -1 -10 -15  223.97    4.75   0
  -1  -5 -13   13.28    1.69   0
   0 -20  -1   30.15    2.83   0
   0 -18  -7   37.12    3.40   0
   0 -12 -13  279.72    5.54   0
   1 -18   1   26.04    3.34   0
   1 -13  -9    3.80    2.89   0
   2  -9  -1  102.45    2.91   0
  -2 -18 -11    7.71    2.74   0
  -2 -15 -14   24.60    3.01   0
  -1 -20  -6   -0.64    2.25   0
  -1 -18 -10   -1.18    2.48   0
  -1  -8 -15  797.53    7.25   0
  -1  -6 -14   63.09    2.46   0
   0  -8 -13  509.79    5.77   0
   1 -18  -1   26.85    3.37   0
   1 -17  -4    1.60    3.16   0
   1 -11 -10    2.83    2.69   0
  -2 -14 -15    2.81    2.77   0
  -2 -10 -16    2.95    2.53   0
  -1 -19  -9    5.45    2.46   0
  -1 -17 -12    3.04    2.73   0
  -1 -16 -13   16.98    3.00   0
  -1 -13 -15  127.21    4.37   0
   0 -20  -3   88.45    3.47   0
   0 -18  -8  174.80    4.75   0
   0 -16 -11    4.74    3.13   0
   1 -18  -2   26.35    3.41   0
   1 -16  -7   21.98    3.40   0
   1 -15  -8   59.34    3.94   0
   1 -14  -9   13.20    3.18   0
   1 -12 -10    1.24    2.81   0
   2 -13  -1  480.01    6.48   0
   2 -10  -3   62.36    2.89   0
   2  -8  -2    5.86    1.80   0
  -2 -12 -16    2.40    2.69   0
  -1 -20  -7   32.44    2.70   0
  -1 -18 -11   -0.28    2.48   0
   0 -14 -13    0.13    3.09   0
   0 -10 -14   78.25    3.54   0
   1 -18  -3   34.10    3.56   0
   1 -13 -10   10.52    3.08   0
   1  -7 -10   95.37    2.79   0
   1  -6  -9  845.33    6.26   0
   2 -14  -1   37.10    3.90   0
   2 -14   0   12.59    3.08   0
   2 -13  -2   14.34    3.08   0
   2  -8  -3   27.06    2.11   0
  -2 -17 -13   16.70    2.64   0
  -2 -15 -15   13.20    2.74   0
  -2 -13 -16   11.23    2.89   0
  -1 -19 -10    4.02    2.70   0
  -1 -14 -15    2.77    2.96   0
  -1 -10 -16  183.19    4.47   0
  -1  -9 -16  350.14    5.41   0
  -1  -5 -14  270.76    3.82   0
   0 -20  -4    2.98    2.47   0
   0 -18  -9  131.86    4.34   0
   0 -16 -12  102.25    4.26   0
   0  -8 -14   15.04    2.40   0
   0  -6 -13 1587.07    8.85   0
   1 -17  -6    7.76    3.14   0
   1  -9 -11    3.44    2.27   0
   2 -14  -2   35.54    3.50   0
   2 -13  -3   28.16    3.26   0
   2 -12  -4   57.76    3.47   0
  -1 -17 -13   11.08    2.90   0
  -1 -16 -14   73.43    3.68   0
  -1  -8 -16    1.27    2.41   0
  -1  -6 -15 1085.87    7.48   0
   1 -19   1    1.79    2.92   0
   1 -18  -5    5.29    3.61   0
   1 -17  -7   11.59    3.26   0
   1 -13 -11   -1.16    3.06   0
   2 -14  -3   -1.47    3.01   0
   2 -13  -4   17.94    3.15   0
   2 -11  -5   15.35    2.66   0
   2 -10  -5   15.70    2.49   0
   2  -9  -5   19.20    2.28   0
   2  -7  -3   -3.65    1.74   0
  -2 -14 -16    3.03    2.71   0
  -2 -11 -17   49.41    3.52   0
  -1 -18 -12   20.79    2.63   0
   0 -20  -6    4.73    2.80   0
   0 -18 -10  128.98    4.28   0
   0 -12 -15   38.31    3.54   0
   0 -10 -15   41.97    3.23   0
   1 -19  -2    3.61    3.21   0
   1 -19  -1    4.67    2.89   0
   1 -15 -10   15.05    3.37   0
   1 -10 -12    3.55    2.69   0
   1  -9 -12    4.74    2.41   0
   1  -7 -11    8.46    1.99   0
   1  -6 -10   36.26    2.12   0
   2 -14  -4   36.61    3.53   0
   2 -11  -6   -0.76    2.64   0
   2 -10  -6  123.48    3.68   0
   2  -8  -5  326.85    4.49   0
  -2 -18 -13    3.66    2.54   0
  -2 -17 -14   -0.28    2.46   0
  -2 -16 -15    3.55    2.63   0
  -1 -19 -11   11.40    2.50   0
  -1 -11 -17   37.11    3.69   0
  -1 -10 -17  410.50    6.29   0
  -1  -7 -16  548.04    5.89   0
   0 -16 -13    4.94    3.01   0
   1 -19  -3   10.59    2.88   0
   1 -18  -6   75.80    3.88   0
   1 -13 -12    1.95    3.34   0
   1  -8 -12   -0.72    2.13   0
   2 -15  -3   34.57    3.72   0
   2 -13  -6    2.83    2.93   0
   2 -12  -6   12.13    3.00   0
  -2 -15 -16    0.30    2.71   0
  -2 -13 -17    9.19    2.80   0
  -1 -18 -13    4.26    2.56   0
  -1 -17 -14   10.93    2.68   0
  -1 -16 -15    2.03    2.77   0
  -1  -9 -17   52.88    3.23   0
   0 -20  -7   11.01    2.63   0
   0 -14 -15   31.00    3.60   0
   0  -6 -14  357.89    4.65   0
   1 -19  -4   27.03    3.09   0
   1 -18  -7   29.92    3.33   0
   1 -17  -9    4.74    3.55   0
   1 -15 -11   11.78    3.24   0
   1 -11 -13  129.17    4.38   0
   1 -10 -13  650.42    7.65   0
   2 -16  -1   14.31    3.85   0
   2 -12  -7  106.57    4.20   0
   2 -10  -7    6.87    2.54   0
   2  -9  -7   23.44    2.53   0
   2  -8  -6  171.62    3.61   0
   2  -7  -5  272.47    3.94   0
  -1 -19 -12    0.64    2.51   0
  -1 -15 -16    4.03    2.85   0
  -1 -13 -17   79.92    3.90   0
  -1  -5 -15  182.51    3.32   0
   0 -16 -14   91.92    4.11   0
   0 -10 -16   35.40    3.28   0
   1 -12 -13  120.20    4.06   0
   1  -9 -13   12.32    2.67   0
   1  -7 -12  172.97    3.73   0
   1  -5 -10  261.76    3.72   0
   2 -16  -2   20.34    3.48   0
   2 -15  -5    4.07    3.22   0
   2 -13  -7   23.60    3.43   0
   2 -11  -8  633.90    7.58   0
   2 -10  -8   73.71    3.43   0
   2  -8  -7  556.89    5.92   0
  -2 -17 -15   -0.69    2.28   0
  -2 -14 -17    1.64    2.70   0
  -1  -6 -16   23.91    2.36   0
   0 -20  -8   18.69    2.58   0
   0 -18 -12   16.81    2.99   0
   0  -8 -16    4.70    2.57   0
   1 -18  -8   25.83    3.29   0
   1 -17 -10    5.46    3.07   0
   1 -16 -11    6.04    3.30   0
   1 -15 -12   18.93    3.51   0
   1  -8 -13  154.07    3.95   0
   2 -12  -8  346.39    6.18   0
   2  -7  -6  428.29    4.90   0
  -2 -16 -16    1.05    2.51   0
  -1 -18 -14   13.71    2.60   0
  -1 -17 -15    8.39    2.58   0
  -1 -16 -16  112.54    3.91   0
  -1 -12 -18  116.75    4.16   0
  -1 -11 -18  122.81    4.25   0
  -1 -10 -18    0.94    2.90   0
  -1  -7 -17    2.67    2.42   0
   0 -14 -16   30.52    3.54   0
   0  -4 -13  778.03    5.79   0
   1 -20  -2    0.84    2.82   0
   1 -12 -14  223.89    5.46   0
   1 -10 -14  437.73    6.60   0
   1  -9 -14  127.57    4.07   0
   1  -7 -13   -0.38    2.06   0
   1  -5 -11  178.62    3.26   0
   2 -16  -4    5.87    3.35   0
   2 -12  -9  291.39    5.92   0
   2 -11  -9   24.89    3.27   0
   2 -10  -9  106.08    3.84   0
   2  -8  -8  135.22    3.54   0
   2  -7  -7  120.30    3.11   0
   2  -6  -5  348.16    4.15   0
  -2 -15 -17   12.70    2.74   0
  -1 -13 -18   35.88    3.33   0
  -1  -9 -18   50.36    3.29   0
   0 -18 -13   10.46    2.70   0
   0 -16 -15   -0.68    2.87   0
   0 -12 -17    4.63    3.25   0
   0 -10 -17  150.92    4.57   0
   1 -20  -3   39.84    3.14   0
   1 -19  -7   29.39    3.09   0
   1 -18  -9    0.96    2.82   0
   1 -17 -11    1.46    3.03   0
   1 -16 -12  101.86    4.37   0
   1 -15 -13   30.29    3.65   0
   1 -13 -14    4.07    3.22   0
   1  -8 -14   12.33    2.56   0
   2 -17  -2    0.98    3.72   0
   2 -16  -5   14.50    3.51   0
   2 -15  -7  114.09    4.64   0
   2 -13  -9  326.39    6.32   0
   2  -6  -6    0.76    1.72   0
  -1 -14 -18   73.69    3.97   0
  -1  -8 -18   32.15    2.98   0
  -1  -5 -16  407.13    4.70   0
   1 -20  -4   25.33    2.74   0
   1 -18 -10    0.38    2.75   0
   1 -12 -15   27.51    3.52   0
   1 -10 -15  232.28    5.28   0
   2 -16  -6    1.56    3.23   0
   2 -15  -8    0.37    3.27   0
   2 -14  -9    4.64    3.36   0
   2 -12 -10   98.54    4.31   0
   2 -11 -10  148.22    4.59   0
   2 -10 -10    2.64    2.80   0
   2  -8  -9  254.24    4.56   0
   2  -7  -8  813.91    6.93   0
  -2 -16 -17   -0.27    2.59   0
  -1 -18 -15   23.80    2.62   0
  -1 -17 -16   13.25    2.56   0
   0 -14 -17   -0.28    3.06   0
   0  -6 -16  173.33    4.07   0
   1 -20  -5    1.83    2.42   0
   1 -19  -8   23.06    2.88   0
   1 -16 -13   15.19    3.30   0
   1 -13 -15  130.78    4.78   0
   1  -9 -15   87.77    3.85   0
   1  -6 -13  695.03    6.51   0
   1  -5 -12   27.59    2.10   0
   2 -17  -5    3.58    3.55   0
   2 -17  -4    3.53    3.28   0
   2 -13 -10   61.86    4.02   0
   2  -9 -10  725.21    7.61   0
   2  -6  -7  149.79    3.19   0
  -1 -15 -18    1.47    2.80   0
  -1 -12 -19   60.69    3.56   0
  -1 -11 -19    4.21    3.02   0
  -1  -7 -18   29.31    2.71   0
   0 -18 -14    4.36    2.62   0
   0 -16 -16    0.67    2.72   0
   0 -12 -18  117.19    4.43   0
   0 -10 -18  213.51    5.10   0
   0  -4 -14  546.02    5.07   0
   1 -20  -6   -1.03    2.61   0
   1 -19  -9    4.76    2.72   0
   1 -14 -15    0.60    3.23   0
   2 -17  -6    4.98    3.63   0
   2 -15  -9  103.25    4.51   0
   2 -14 -10   71.26    4.17   0
   2 -10 -11  139.01    4.46   0
   2  -8 -10   19.60    2.61   0
   2  -7  -9   -1.96    2.03   0
  -1 -13 -19   19.24    3.14   0
  -1  -9 -19   21.25    3.00   0
   1 -17 -13   12.15    3.01   0
   1 -13 -16   -1.46    3.18   0
   1 -11 -16   20.95    3.36   0
   1 -10 -16  167.85    4.83   0
   1  -6 -14   65.67    2.83   0
   2 -15 -10   27.56    3.69   0
   2 -14 -11    8.21    3.29   0
   2 -11 -12  469.71    7.13   0
   2  -9 -11  227.17    4.58   0
   2  -6  -8   57.84    2.15   0
  -1 -16 -18   22.73    2.98   0
  -1 -14 -19   32.08    3.12   0
   0 -18 -15    2.70    2.37   0
   0 -16 -17    2.07    2.71   0
   0 -14 -18  107.44    4.25   0
   1 -20  -7    6.22    1.53   0
   1 -19 -10    1.86    2.59   0
   1 -18 -12   19.64    2.93   0
   1 -15 -15   74.22    4.03   0
   1 -14 -16  171.57    5.08   0
   1  -9 -16  355.40    6.05   0
   1  -7 -15    1.63    2.45   0
   2 -16  -9   44.74    3.74   0
   2 -13 -12   32.76    3.78   0
   2 -12 -12    1.19    3.07   0
   2 -10 -12   20.70    3.18   0
   2  -9 -12  340.69    5.79   0
   2  -8 -11  207.17    4.52   0
   2  -7 -10 1310.63    9.11   0
   2  -6  -9  396.21    4.93   0
   2  -5  -7  431.25    4.61   0
   0 -12 -19  116.11    4.35   0
   0  -6 -17  601.26    6.39   0
   0  -4 -15   58.99    2.41   0
   1 -17 -14   12.65    3.38   0
   1 -11 -17   37.40    3.67   0
   1  -8 -16   -1.52    2.75   0
   1  -4 -12   34.59    2.13   0
   2 -18  -5    2.25    2.96   0
   2 -16 -10  105.55    4.36   0
   2 -15 -11  181.17    5.25   0
   2 -14 -12   24.34    3.65   0
   2  -7 -11   91.54    3.26   0
  -1 -15 -19   37.98    3.03   0
  -1 -13 -20   13.91    3.21   0
  -1 -12 -20    3.12    2.84   0
  -1 -11 -20    0.82    2.88   0
  -1 -10 -20   -0.99    2.83   0
  -1  -7 -19    6.54    2.93   0
   1 -19 -11   11.43    2.61   0
   1 -18 -13    4.63    2.66   0
   1 -15 -16    3.61    3.02   0
   1 -13 -17   86.72    4.25   0
   1 -10 -17  401.59    6.69   0
   1  -9 -17   54.91    3.70   0
   2 -18  -6    1.14    2.97   0
   2 -17  -9   71.87    3.91   0
   2 -13 -13  123.47    4.71   0
   2 -10 -13   96.63    4.16   0
   2  -9 -13   28.59    3.14   0
   2  -6 -10   17.43    2.28   0
   2  -5  -8  736.49    6.04   0
  -1  -9 -20   14.80    2.98   0
   0 -18 -16    3.05    2.35   0
   0 -16 -18   15.94    2.73   0
   0 -14 -19   -0.54    2.89   0
   0  -8 -19  123.98    4.13   0
   1 -14 -17    8.62    3.26   0
   1  -8 -17  633.17    7.53   0
   2 -18  -7    1.25    2.93   0
   2 -16 -11   16.63    3.35   0
   2 -14 -13   22.48    3.52   0
   2 -11 -14    8.00    3.12   0
   2  -7 -12  792.22    7.64   0
   2  -5  -9  363.79    4.53   0
   3 -12  -3    4.77    3.50   0
   3 -10  -2   -0.86    3.03   0
  -1 -16 -19   -0.27    2.33   0
  -1 -14 -20    2.20    2.69   0
   0  -6 -18   12.16    2.53   0
   1 -19 -12   -2.19    2.31   0
   1 -18 -14   19.18    2.99   0
   1 -16 -16  110.48    4.11   0
   1 -15 -17   16.85    3.04   0
   1 -10 -18    2.72    3.18   0
   1  -4 -13  533.89    5.14   0
   2 -13 -14    6.78    3.41   0
   2 -12 -14    1.62    2.36   0
   2 -10 -14   20.97    3.24   0
   2  -8 -13    9.47    2.72   0
   3 -12  -5   19.55    3.70   0
   3 -12  -4    3.16    3.08   0
   3 -10  -3    1.88    2.69   0
   0  -4 -16  152.08    3.27   0
   1 -13 -18   39.88    3.63   0
   1  -9 -18   54.01    3.70   0
   1  -7 -17    3.77    2.66   0
   1  -6 -16   21.44    2.62   0
   2 -18  -9    5.30    3.12   0
   2 -17 -11  181.94    4.72   0
   2 -16 -12    1.81    2.98   0
   2 -15 -13   77.65    4.03   0
   2 -14 -14   14.61    3.44   0
   2 -11 -15    3.05    3.18   0
   2  -7 -13    0.66    2.51   0
   2  -5 -10  778.37    6.58   0
   3 -12  -6    0.46    3.17   0
   3 -10  -5    9.61    2.87   0
  -1 -15 -20    1.30    2.40   0
  -1 -13 -21   11.16    3.01   0
  -1 -12 -21   10.57    2.85   0
  -1 -11 -21   -0.39    2.79   0
  -1 -10 -21    3.00    2.84   0
   0 -16 -19   34.61    3.20   0
   1 -16 -17    3.25    2.65   0
   1  -3 -12  141.52    2.94   0
   2 -19  -6    0.18    2.46   0
   2 -15 -14   28.10    3.38   0
   2 -13 -15    3.37    3.13   0
   2 -12 -15    8.80    3.25   0
   2  -6 -12  192.53    4.08   0
   2  -4  -8  518.46    4.96   0
   3 -14  -5    8.94    3.75   0
   3 -14  -4    5.14    3.29   0
   3 -12  -7   -0.37    3.11   0
   3 -11  -7  456.81    6.76   0
   3 -10  -7  163.49    4.56   0
   3  -8  -2   21.90    2.71   0
   0  -8 -20   22.16    3.12   0
   1 -18 -15   26.47    2.74   0
   1 -15 -18    1.10    2.83   0
   1 -11 -19   -0.21    3.14   0
   2 -19  -7    1.87    2.45   0
   2 -17 -12    3.04    2.87   0
   2 -14 -15    2.37    3.18   0
   3 -14  -6   16.94    3.40   0
   3 -13  -7  267.03    5.78   0
   3 -12  -8    2.17    3.23   0
   3  -9  -7   44.42    3.35   0
   3  -8  -5    3.23    2.42   0
   3  -8  -4    1.09    2.30   0
  -1 -14 -21   19.27    2.65   0
   1  -9 -19   16.94    3.26   0
   1  -7 -18   30.12    3.17   0
   2 -18 -11    6.97    2.95   0
   2 -16 -14   15.21    2.99   0
   2 -15 -15   12.94    3.56   0
   2 -13 -16   10.16    3.32   0
   2 -12 -16   -1.55    3.09   0
   3 -15  -5  142.49    4.57   0
   3 -14  -7   -0.59    3.24   0
   3 -13  -8  122.73    4.55   0
   3 -11  -9   18.85    3.40   0
   3 -10  -9    4.63    3.08   0
   3  -8  -6   26.17    2.86   0
   1 -17 -17   34.81    2.88   0
   1 -16 -18   23.36    2.95   0
   2 -17 -13   17.08    2.93   0
   2 -14 -16    2.52    3.02   0
   2  -9 -16   -0.79    2.99   0
   2  -7 -15    9.68    2.75   0
   2  -4 -10    0.45    1.75   0
   3 -13  -9   -1.49    3.17   0
   3 -12 -10   48.64    3.78   0
   3 -11 -10    9.57    3.28   0
   3 -10 -10    6.75    3.04   0
   3  -9  -9   53.48    3.43   0
   3  -8  -8   18.97    3.23   0
   3  -7  -5    0.62    2.54   0
  -1 -15 -21    4.38    1.93   0
   0 -16 -20  103.65    3.44   0
   0  -8 -21  814.42    8.10   0
   1 -15 -19   39.59    3.18   0
   1 -13 -20   12.76    3.01   0
   1 -12 -20   -0.43    2.91   0
   1 -11 -20    0.19    2.91   0
   1 -10 -20    1.32    3.14   0
   1  -6 -18  186.41    4.40   0
   1  -5 -17   91.54    3.35   0
   2 -18 -12    1.57    2.47   0
   2 -16 -15    3.87    2.70   0
   2  -8 -16    6.18    3.02   0
   2  -6 -14   17.93    2.06   0
   3 -11 -11   73.06    3.94   0
   3  -9 -10   26.98    3.25   0
   3  -7  -6 1314.99    8.91   0
   1  -3 -14  296.59    3.86   0
  -2  -6  16  239.27    5.38   0
  -2  -5  19  114.81    5.06   0
  -2  -4  21   56.95    4.42   0
  -2  -3  22   21.50    3.98   0
  -2  -2  22  167.55    5.70   0
  -2  -1  11 1335.37    8.79   0
  -2   0  20    8.61    3.56   0
  -2   1  14   38.58    2.76   0
  -2   1  15  146.95    4.23   0
  -2   1  17  149.89    4.67   0
  -2   1  18   67.83    3.80   0
  -2   1  19  581.46    7.69   0
  -1 -10  12    1.37    3.16   0
  -1 -10  20    0.32    3.95   0
  -1  -9   9   15.49    2.67   0
  -1  -9  23    0.47    3.77   0
  -1  -4  29   19.38    3.73   0
  -1  -1  29   45.76    4.27   0
  -1   1  28    6.93    4.46   0
   0 -12  21  130.36    5.28   0
   0 -10  27   54.83    3.91   0
   0   0  32   61.55    4.03   0
  -2  -5  16   20.12    3.47   0
  -2  -5  18  198.41    5.66   0
  -2  -4  12  188.97    4.32   0
  -2  -3  11  683.97    6.66   0
  -2  -2  11   22.88    2.43   0
  -2  -2  21    3.47    3.63   0
  -2  -1  12   -0.02    2.13   0
  -2  -1  20  221.21    5.83   0
  -1 -10  13  625.99    8.06   0
  -1 -10  18    3.94    3.83   0
   0 -12  20  162.00    5.58   0
   0  -6  31  106.00    4.27   0
   0  -4  32   43.86    3.57   0
   1 -11  27    2.08    3.25   0
  -2  -4  14    8.40    2.71   0
  -2  -4  15   65.43    3.59   0
  -2  -4  16    0.47    2.91   0
  -2  -4  17    1.75    3.12   0
  -2  -4  18    3.55    3.28   0
  -2  -3  13  841.83    8.04   0
  -2  -3  18  137.19    4.83   0
  -2  -3  19  302.93    6.54   0
  -2  -2  12  235.97    4.40   0
  -2  -2  19  169.61    5.27   0
  -2  -1  13  684.04    6.91   0
  -2  -1  19  562.06    7.93   0
  -1 -10  16  151.11    5.23   0
  -1  -9  10    3.31    2.71   0
  -1  -9  22    2.30    3.75   0
  -1  -8  24    3.14    3.87   0
  -1  -1  28    6.20    4.41   0
  -1   0  28  168.37    5.67   0
   0 -12  19  107.41    5.08   0
   0 -10  26   42.00    3.87   0
   0  -2  32  120.67    4.47   0
  -2  -3  14  187.13    4.51   0
  -2  -3  16  107.97    4.17   0
  -2  -3  17  114.08    4.43   0
  -2  -2  14   56.63    3.13   0
  -2  -2  15   54.60    3.24   0
  -2  -2  17    3.46    2.97   0
  -2  -2  18  216.93    5.41   0
  -2  -1  14   38.48    2.82   0
  -2  -1  15  140.59    4.02   0
  -2  -1  16    0.84    2.65   0
  -2  -1  17  157.17    4.57   0
  -1  -9  11    1.19    2.79   0
  -1  -9  21   -0.15    3.71   0
  -1  -8  23   85.65    5.07   0
  -1  -6  26   30.61    4.20   0
  -1  -3  28   14.62    3.84   0
  -1  -2  28  161.53    5.66   0
   0 -12  16   -1.18    3.73   0
   1 -10  28    1.25    3.26   0
  -1  -8  22    1.66    3.62   0
  -1  -7  24  131.58    5.47   0
  -1  -4  27  182.07    5.99   0
   0  -8  28   -0.39    3.33   0
   0  -6  30    4.50    3.26   0
   0  -4  31   87.51    4.30   0
   1 -11  26   18.72    3.47   0
  -1  -9  13   14.63    3.15   0
  -1  -9  14  123.39    4.51   0
  -1  -9  15   88.02    4.38   0
  -1  -9  16  354.24    6.85   0
  -1  -9  17   50.64    4.26   0
  -1  -9  18   51.46    4.17   0
  -1  -6  25  180.50    6.09   0
  -1  -5  26   58.52    4.58   0
  -1  -3  27   93.59    5.00   0
  -1  -2  27   31.22    4.31   0
  -1  -1  27  147.81    5.54   0
  -1   1  26   20.15    4.11   0
   0 -10  24   11.53    3.97   0
  -1  -8  20   27.60    4.17   0
  -1  -7   8  151.26    3.40   0
  -1  -7  23    1.13    3.69   0
  -1  -6  24   40.39    4.32   0
  -1  -5  25   31.44    4.23   0
  -1  -4  26   94.58    5.13   0
   0 -10  23  208.03    6.45   0
   0  -8  27    8.55    3.60   0
   0  -6  29  143.53    5.04   0
   1 -12  22    0.74    3.69   0
   1 -10  27   83.79    4.18   0
  -1  -8  19  116.44    5.10   0
  -1  -3  26   71.51    4.65   0
  -1  -2  26  257.11    6.63   0
   0  -4  30   92.93    4.58   0
   1 -12  21    6.90    3.84   0
  -1  -8  12    2.74    2.55   0
  -1  -8  13  143.75    4.27   0
  -1  -8  16    1.85    3.19   0
  -1  -8  18   32.49    3.90   0
  -1  -7   9    2.37    2.05   0
  -1  -7  21    2.93    3.83   0
  -1  -5  24   54.91    4.62   0
  -1  -4  25  169.93    5.81   0
  -1  -3  25   55.46    4.41   0
   0  -8  26   13.68    3.77   0
   0  -2  30  185.07    5.57   0
   0   0  30  277.30    6.18   0
   1 -12  20    1.11    4.15   0
   1 -10  26   36.57    3.65   0
   1  -9  28   18.72    3.27   0
   1  -8  29   25.75    3.22   0
   1  -7  30    3.21    3.26   0
   1  -6  31   -0.89    2.78   0
   1  -4  32    1.02    2.75   0
  -1  -8  15  675.67    8.22   0
  -1  -7  10   97.46    3.21   0
  -1  -7  20   36.27    4.04   0
  -1  -5  23    5.18    3.72   0
  -1  -2  25   35.11    4.28   0
  -1   1  24   13.39    3.78   0
  -1   2  23   16.11    4.21   0
  -1   3  22   59.79    3.99   0
   0 -10  21  344.21    7.25   0
   0  -6  28    2.49    3.44   0
   0  -4  29  143.43    5.58   0
   1 -12  19   58.94    4.85   0
   1 -11  23   12.45    4.20   0
   1  -3  32    6.60    2.89   0
   1   0  32    1.79    2.88   0
  -1  -7  11    8.23    2.29   0
  -1  -7  18   30.66    3.62   0
  -1  -7  19    9.99    3.51   0
  -1  -3  24   10.99    3.77   0
  -1   0  24   23.82    3.88   0
   0 -10  20  138.88    5.47   0
   0  -8  25   68.21    4.62   0
   1 -10  25   82.49    4.32   0
   1  -9  27   -1.72    3.18   0
   1  -5  31    3.90    2.91   0
   1  -1  32    0.03    2.42   0
   1  -1  32    0.63    1.61   0
   2 -11  25    0.40    3.14   0
   2 -10  27    0.47    2.98   0
  -1  -7  12  169.48    4.11   0
  -1  -7  13   -1.46    2.38   0
  -1  -7  16  540.46    7.49   0
  -1  -7  17    1.92    3.27   0
  -1  -6  20    0.07    3.42   0
  -1  -5  22   35.62    4.03   0
  -1  -4  23   30.74    3.97   0
  -1  -1  24   13.35    3.80   0
  -1   1  23    3.05    3.44   0
  -1   3  21   17.76    3.34   0
   0 -10  10  226.51    4.43   0
   0 -10  19  183.07    5.72   0
   0  -6  27   13.36    3.79   0
   0  -2  29   25.96    3.87   0
   0   2  28   60.88    4.32   0
   1 -11  22   12.32    3.76   0
   1  -8  28   -0.78    2.97   0
   1  -4  31    2.04    3.32   0
  -1  -7  14  425.11    6.24   0
  -1  -6  19  130.48    4.91   0
  -1  -4  22    1.22    3.41   0
  -1  -2  23   17.55    3.74   0
  -1  -1  23    5.43    3.42   0
  -1   3  20    6.26    3.01   0
   0  -8  24   33.82    4.16   0
   0  -4  28   33.45    3.98   0
   1 -11  21    0.27    4.11   0
   1 -10  24   95.02    4.61   0
   1  -9  26  133.88    4.99   0
   1   1  31    1.25    3.20   0
   2 -11  24   21.62    3.54   0
   2  -9  28    7.64    2.31   0
  -1  -6  10   39.07    2.37   0
  -1  -6  11    5.53    2.05   0
  -1  -6  18  186.49    5.20   0
  -1  -5  20   14.37    3.56   0
  -1  -4  21    2.51    3.29   0
  -1  -3  22   60.17    4.18   0
  -1   1  22    2.54    3.23   0
  -1   2  21  149.25    4.63   0
  -1   3  19   40.93    3.56   0
   0 -10  12  468.86    6.39   0
   0 -10  13  749.64    8.03   0
   0 -10  14   80.34    4.04   0
   0 -10  15   44.10    3.76   0
   0  -8  23  128.72    5.37   0
   0   0  28  127.06    5.48   0
   1  -8  27  152.57    5.00   0
   1  -5  30    3.72    3.03   0
   1  -3  31    0.93    2.88   0
   1  -2  31   -1.16    3.05   0
   1  -1  31   -2.36    3.48   0
   2 -10  26   -0.31    2.90   0
   2  -8  29    2.01    2.63   0
  -1  -6  13  689.92    7.09   0
  -1  -6  15 1122.85    9.58   0
  -1  -5  19    1.21    3.25   0
  -1  -3  21   18.05    3.49   0
  -1  -2  22  279.87    6.26   0
  -1  -1  22    5.04    3.40   0
  -1   1  21   23.44    3.42   0
  -1   2  20   84.69    4.20   0
   0  -4  27   -0.67    3.59   0
   0  -2  28   58.94    4.29   0
   0   2  27    7.42    3.70   0
   1 -11  20    1.56    3.73   0
   1 -10  23   25.29    3.97   0
   1  -9  25   24.55    3.74   0
   1  -4  30    8.07    3.55   0
   1   2  30   12.10    3.74   0
   2  -9  27    3.18    3.30   0
  -1  -2  21  158.29    4.98   0
  -1   3  18  217.96    4.39   0
   1 -11  19    0.57    3.58   0
   2 -10  25    1.02    3.26   0
   2  -8  28    2.42    3.18   0
  -1  -5  11  173.00    3.56   0
  -1  -5  16  421.23    6.23   0
  -1  -4  19  110.07    4.31   0
  -1  -3  20    5.32    3.18   0
  -1  -2  20   79.79    3.87   0
  -1   1  20   21.19    3.11   0
  -1   2  19  277.15    5.13   0
  -1   3  17  153.01    3.73   0
   0  -8  21  815.31    9.99   0
   0  -4  26   14.94    3.60   0
   0  -2  27    8.31    3.77   0
   1  -9  24    2.63    3.61   0
   1  -8  26    6.04    3.40   0
   1  -7  27    1.27    3.24   0
   1  -5  29    6.18    3.21   0
   1  -3  30   -0.43    3.06   0
   1  -2  30   17.48    3.28   0
   1   1  30   12.91    3.41   0
   2 -11  22   71.33    4.26   0
   2  -7  29    1.48    2.79   0
   2  -6  30   -0.36    2.54   0
   2  -4  31   10.50    2.63   0
  -1  -5  13   13.46    2.29   0
  -1  -5  14  277.11    4.81   0
  -1  -5  15  170.82    3.82   0
  -1  -4  17  348.85    5.76   0
  -1  -1  20   23.00    3.27   0
  -1   1  19   75.55    3.52   0
  -1   2  18 1233.49    9.11   0
   0  -8  20   18.87    3.68   0
   0   2  26   18.51    3.78   0
   1 -11  16   16.93    3.90   0
   1 -11  17   39.65    3.88   0
   1  -4  29   18.40    3.34   0
   2 -10  24    8.13    3.32   0
   2  -9  26    0.91    3.08   0
  -1  -4  11   45.87    2.38   0
  -1  -4  16  517.07    6.53   0
  -1  -3  18  213.10    4.90   0
  -1  -2  19  286.41    5.53   0
  -1  -1  19   79.60    3.62   0
  -1   1  18   -0.37    2.44   0
  -1   2  17  117.05    3.40   0
   0  -8  19  117.51    4.53   0
   0  -2  26   17.19    3.74   0
   1  -9  23   -1.67    3.46   0
   1  -8  25  173.42    5.48   0
   1  -5  28  114.03    4.59   0
   1   2  29   29.99    3.70   0
   2 -11  21   47.71    3.88   0
   2  -8  27    3.57    2.97   0
   2  -5  30   64.91    3.55   0
  -1  -4  12   33.41    2.31   0
  -1  -3  16   53.33    2.94   0
  -1  -2  18 1232.90    9.88   0
  -1  -1  18   -1.24    2.45   0
  -1   0  18  304.08    5.14   0
  -1   1  17  509.69    5.92   0
  -1   2  16 1124.10    7.96   0
   0  -8  18   50.16    3.62   0
   1  -7  26   43.69    3.91   0
   1  -6  27  166.72    5.39   0
   1  -3  29   19.84    3.38   0
   1  -2  29   25.18    3.44   0
   1   1  29   46.34    3.89   0
   2  -9  25    0.67    3.54   0
   2  -7  28   23.09    3.21   0
   2  -6  29    5.19    2.83   0
   2  -2  31    4.10    2.63   0
   3 -10  24   -0.24    2.91   0
  -1  -3  12  127.16    3.03   0
  -1  -3  14  328.76    4.69   0
  -1  -3  15  618.24    6.52   0
  -1  -2  16 1055.46    8.40   0
  -1  -2  17  116.21    3.27   0
  -1  -1  17  525.37    6.26   0
  -1   1  16    7.25    2.14   0
  -1   2  15  342.07    4.46   0
   0  -8  17  759.37    8.53   0
   0  -6  22   64.33    4.29   0
   1  -9  22    1.26    3.37   0
   1  -8  24    4.37    3.42   0
   1  -4  28   94.58    4.46   0
   1  -1  29   43.08    3.81   0
   1   3  28   15.60    3.48   0
   2  -4  30    9.86    2.87   0
   3  -8  27   -1.07    2.59   0
  -1  -2  14  389.50    4.87   0
  -1  -2  15  327.67    4.75   0
  -1  -1  16    5.90    2.16   0
  -1   0  16 1608.44    9.80   0
  -1   1  14  167.88    3.43   0
  -1   1  15  418.44    4.91   0
   0  -8  16    0.98    2.76   0
   1 -10  18    3.94    3.34   0
   1  -9  21    1.19    3.32   0
   1  -7  25   24.90    3.68   0
   1  -6  26   26.89    3.71   0
   1  -5  27   19.43    3.58   0
   1  -3  28   17.19    3.40   0
   1   2  28  160.33    5.25   0
   2 -11  19   57.30    4.07   0
   2 -10  22    1.23    3.36   0
   2  -8  26    2.81    3.08   0
   2  -7  27    1.37    3.35   0
   2  -3  30   32.01    3.18   0
   2   2  30   11.94    2.90   0
   3  -7  28   16.59    2.77   0
  -1  -2  13   23.76    2.10   0
  -1  -1  13  760.77    6.13   0
  -1  -1  14  168.88    3.42   0
  -1   0  14  924.97    6.82   0
   0  -8  13  527.66    6.14   0
   0  -8  14   13.01    2.57   0
   0  -8  15  156.54    4.23   0
   0  -4  23  390.60    7.03   0
   0   2  24  234.58    5.49   0
   1 -10  17  427.25    6.75   0
   1  -8  23   83.13    4.43   0
   1  -2  28  154.18    5.00   0
   1   1  28    6.47    3.78   0
   2  -9  24   74.04    4.05   0
   2  -2  30   15.82    2.97   0
   2   1  30   10.25    2.82   0
   3 -10  23   -0.81    3.02   0
   3  -9  25   34.69    3.17   0
   1 -10  16  165.16    4.72   0
   1  -8  22    2.02    3.20   0
   1  -7  24  127.56    4.99   0
   1  -5  26   59.87    4.14   0
   1  -4  27  192.72    5.42   0
   1  -1  28    6.55    3.25   0
   1   3  27   88.69    4.19   0
   2 -11  17   51.55    4.28   0
   2 -10  21   84.24    4.28   0
   2  -8  25    1.09    3.09   0
   2  -4  29    4.97    2.88   0
   2  -1  30   11.95    2.96   0
   2   0  30   17.87    3.03   0
   3  -8  26   -0.22    2.75   0
   3  -5  29    6.43    2.36   0
   0  -6  19  486.74    6.98   0
   0  -4  22  657.61    8.42   0
   0   2  23   11.11    3.18   0
   1 -10  13  637.04    7.14   0
   1 -10  15  227.02    5.01   0
   1  -9  19   20.28    3.44   0
   2  -9  23    6.94    3.28   0
   2  -7  26    0.28    2.97   0
   3 -10  22   -0.91    3.14   0
   3  -9  24   75.78    3.80   0
   3  -7  27   15.60    2.84   0
   3  -6  28    1.35    2.57   0
   0  -2  23    7.99    3.11   0
   1 -10  11    1.73    2.39   0
   1 -10  12    1.89    2.56   0
   1  -7  23    0.06    3.24   0
   1  -6  24   39.48    3.62   0
   1  -4  26   98.37    4.51   0
   1  -2  27   30.29    3.70   0
   1   1  27  149.02    5.13   0
   1   2  27   33.79    3.74   0
   2 -10  20  108.20    4.48   0
   2  -8  24   -2.16    3.49   0
   2  -2  29    7.19    2.84   0
   2   2  29   10.34    3.01   0
   3  -2  30    5.21    2.35   0
   0  -6  18   10.25    2.69   0
   0  -4  21   71.41    3.78   0
   1   3  26   70.20    4.22   0
   2 -10  19    0.19    3.62   0
   2  -9  22  238.46    5.64   0
   2  -4  28   -1.64    2.77   0
   3 -10  21    1.05    3.09   0
   3  -4  29   -2.39    2.24   0
   3  -1  30    0.91    1.78   0
   3  -1  30   -0.56    1.22   0
   4  -9  23    0.66    2.03   0
   0  -2  22  892.39    9.12   0
   0   2  22  894.61    8.50   0
   1  -4  25  161.62    4.99   0
   2  -7  25    2.08    2.96   0
   2  -6  26    5.89    3.07   0
   2  -3  28   40.94    3.34   0
   2   3  28   44.64    3.66   0
   3  -9  23    8.21    3.09   0
   3  -6  27   -1.35    2.59   0
   3  -5  28   43.77    3.01   0
   3  -3  29    4.57    2.34   0
   0  -6  16  175.42    4.09   0
   0   0  22  734.42    7.99   0
   1  -8  19  117.75    4.24   0
   1  -7  21    2.22    3.00   0
   1  -2  26  264.55    5.85   0
   1  -1  26   20.61    3.39   0
   1   1  26   19.86    3.77   0
   1   2  26  268.71    5.67   0
   1   4  25  165.01    4.66   0
   2 -10  18    4.87    3.13   0
   3 -10  20   -1.84    3.08   0
   3  -8  24    2.02    3.21   0
   4  -8  24    0.47    2.48   0
   0  -6  15  215.08    4.15   0
   0  -4  19  839.55    8.19   0
   0  -2  21  275.75    4.99   0
   0   2  21  301.96    5.16   0
   1  -9  14  112.41    3.91   0
   1  -9  15   89.30    3.55   0
   1  -6  22    5.62    2.90   0
   1  -3  25   55.96    3.86   0
   1   0  26  611.56    7.98   0
   1   3  25   59.27    4.11   0
   2  -7  24   83.05    4.09   0
   2  -6  25   -1.16    2.75   0
   2  -5  26    3.73    2.91   0
   2  -4  27   -1.91    2.66   0
   2  -2  28   19.70    3.04   0
   2  -1  28    0.70    2.73   0
   2   1  28   -1.49    3.24   0
   2   2  28   20.53    3.14   0
   3  -9  22   24.58    3.30   0
   3  -2  29   -0.71    2.28   0
   3  -1  29   39.34    2.80   0
   3   2  29    1.03    2.49   0
   0  -6  13 1533.10    8.91   0
   0  -6  14  358.17    4.63   0
   0  -4  18  239.65    4.57   0
   0  -2  20  524.18    6.56   0
   1  -9  13   14.14    2.46   0
   1  -8  18   37.45    3.24   0
   2  -8  22   -1.24    2.92   0
   2  -3  27    2.72    2.76   0
   2   0  28    6.14    2.89   0
   3 -10  19    1.75    3.06   0
   3  -7  25   14.17    2.84   0
   3  -6  26   -1.09    2.55   0
   3  -5  27   28.79    2.94   0
   4  -6  26    1.72    2.20   0
   0  -6  11 2287.28    9.86   0
   0  -6  12  133.02    2.99   0
   0   2  20  541.83    6.15   0
   1  -9  10    2.56    1.86   0
   1  -9  11    3.31    2.00   0
   1  -9  12    3.76    2.17   0
   1  -8  17  650.66    7.37   0
   1  -6  21    3.76    2.81   0
   1  -1  25  149.50    4.73   0
   1   2  25   31.54    3.40   0
   1   4  24   84.99    3.81   0
   2 -10  16    4.64    2.87   0
   2  -7  23    7.81    3.00   0
   2  -4  26    5.90    2.85   0
   2   3  27   -0.23    2.89   0
   3  -9  21    4.81    3.01   0
   3  -8  23   -0.82    2.82   0
   3  -3  28   48.31    2.97   0
   4  -9  21   16.56    2.82   0
   0   0  20 1083.23    8.68   0
   1  -8  16    0.81    2.53   0
   1  -7  19   10.34    2.86   0
   1  -5  22   39.60    3.31   0
   1  -4  23   30.36    3.28   0
   2 -10  15   -0.73    2.70   0
   2  -8  21  115.02    4.29   0
   2  -6  24   16.83    3.13   0
   2  -5  25    4.69    2.84   0
   2  -2  27    1.66    2.76   0
   2  -1  27   13.13    2.90   0
   2   2  27    0.79    2.70   0
   3 -10  18   12.22    3.14   0
   3  -2  28    7.85    2.52   0
   3   3  28   45.00    2.92   0
   4  -7  24   34.53    2.89   0
   0   2  19  397.07    5.09   0
   1  -8  15  734.95    7.09   0
   1  -7  18   27.28    2.85   0
   1  -6  20   -1.93    2.63   0
   1   3  24    8.90    3.00   0
   2 -10  14   16.41    2.79   0
   2  -7  22  341.50    6.12   0
   2  -3  26   11.30    2.87   0
   2   4  26    6.18    2.89   0
   3 -10  17   11.76    3.53   0
   3  -9  20   22.14    3.08   0
   3  -8  22    0.03    2.66   0
   3  -6  25    1.78    2.64   0
   3  -1  28    5.72    2.41   0
   3   0  28   -1.70    2.69   0
   3   2  28   12.62    2.60   0
   4  -9  20   40.89    3.38   0
   4  -8  22    0.93    2.91   0
   4  -6  25    7.66    2.49   0
   4  -5  26   -0.32    2.25   0
   0  -2  18  754.50    6.96   0
   0   4  17   46.22    2.55   0
   1  -5  21    2.31    2.61   0
   1  -4  22    4.12    2.71   0
   1  -3  23   81.96    3.76   0
   1  -1  24   12.94    2.89   0
   1   0  24   26.44    3.09   0
   1   2  24  181.67    4.57   0
   1   4  23   27.98    2.98   0
   2  -9  17   67.45    3.81   0
   2  -6  23   33.37    3.35   0
   2  -5  24   49.47    3.46   0
   2  -4  25    5.76    2.94   0
   2  -2  26   30.25    3.12   0
   3   4  27    8.23    2.52   0
   4  -3  27    1.56    2.17   0
   0   2  18  773.02    6.44   0
   1  -8  13  157.72    3.52   0
   1  -7  17    3.69    2.46   0
   1  -6  19  129.89    4.01   0
   1  -2  23   19.32    2.96   0
   1   3  23   83.93    3.81   0
   2  -7  21    1.56    2.73   0
   2  -1  26   -0.08    2.58   0
   2   3  26   13.13    2.98   0
   3 -10  16   39.77    3.28   0
   3  -9  19   28.86    3.11   0
   3  -7  23    1.56    2.77   0
   3  -6  24    0.61    2.50   0
   3  -2  27    9.70    2.54   0
   4  -7  23    0.75    2.56   0
   4  -4  26    0.77    2.13   0
   0  -2  17    5.02    1.39   0
   0   0  18  657.97    6.14   0
   1  -8  12    2.26    1.85   0
   1  -7  16  554.15    6.19   0
   1  -5  20   13.58    2.64   0
   1  -3  22   59.05    3.33   0
   1  -1  23    1.77    2.63   0
   1   2  23   18.16    2.72   0
   2  -9  16   -1.97    2.51   0
   2  -8  19   26.47    2.98   0
   2  -6  22   10.99    2.76   0
   2  -3  25    6.19    2.77   0
   2   0  26   -1.09    2.67   0
   2   2  26   27.01    3.04   0
   3  -8  21    5.21    2.82   0
   3  -5  25   75.14    3.45   0
   3  -1  27  143.03    4.01   0
   4  -9  19    1.87    2.72   0
   4  -8  21   57.60    3.25   0
   4  -6  24    1.00    2.45   0
   4  -5  25    1.11    2.32   0
   4  -2  27    1.05    2.08   0
   0  -4  13  754.73    5.72   0
   0  -2  16  127.71    2.93   0
   0   2  17    8.02    1.79   0
   1  -8  10   18.84    1.83   0
   1  -8  11  121.70    2.89   0
   1  -6  18  183.94    4.24   0
   1  -2  22  267.56    5.05   0
   1   4  22    2.68    2.41   0
   2  -9  15    3.73    2.54   0
   2  -8  18    4.79    2.58   0
   2  -7  20  242.54    5.05   0
   2  -5  23  160.53    4.52   0
   2   4  25    6.09    2.80   0
   3 -10  15    0.66    2.74   0
   3  -7  22   48.03    3.27   0
   3  -3  26   21.97    2.74   0
   4  -1  27    0.28    2.07   0
   4   2  27    3.81    1.95   0
   1  -8   9   96.26    2.39   0
   1  -7  15    4.13    2.02   0
   1  -6  17  822.23    7.38   0
   1  -5  19    0.38    2.25   0
   1  -3  21   16.83    2.65   0
   1  -1  22    1.18    2.34   0
   1   3  22   59.47    3.35   0
   2  -3  24   43.40    3.16   0
   2  -1  25   84.85    3.73   0
   2   3  25    4.67    2.69   0
   3  -6  23   -1.23    2.54   0
   3  -5  24  157.56    4.32   0
   3  -4  25   -1.44    2.45   0
   3  -2  26    1.29    2.33   0
   3   4  26    0.16    2.43   0
   4  -9  18   78.06    3.43   0
   4  -8  20    3.37    2.91   0
   4  -4  25   -0.28    2.53   0
   0  -2  15   12.49    1.62   0
   0   0  16   31.96    1.88   0
   0   2  16  120.54    2.63   0
   1  -7  14  449.63    5.12   0
   1   0  22  157.53    4.05   0
   1   1  22    4.79    2.34   0
   1   2  22  269.26    4.77   0
   2  -8  17   25.57    2.79   0
   2  -7  19   15.38    2.69   0
   2  -6  21  195.92    4.68   0
   2   1  25   86.43    3.60   0
   2   2  25   26.98    2.90   0
   3  -9  17   12.27    2.85   0
   3  -1  26    8.27    2.41   0
   4  -6  23   74.02    3.33   0
   4  -5  24   -0.84    2.22   0
   4  -2  26    1.98    2.23   0
   4   4  26    0.61    1.99   0
   0  -2  14 1147.66    6.71   0
   1  -7  13   -0.63    1.63   0
   1  -5  18  153.65    3.74   0
   1  -3  20    3.20    2.24   0
   1  -2  21  154.04    3.96   0
   1   4  21    3.62    2.22   0
   2  -9  13   28.88    2.52   0
   2  -2  24    5.27    2.71   0
   2   4  24   57.64    3.20   0
   3  -7  21    3.07    2.55   0
   3   0  26    2.36    2.42   0
   3   1  26   11.22    2.84   0
   3   3  26   21.82    2.63   0
   3   5  25   77.54    3.19   0
   4  -9  17   -0.22    2.62   0
   4  -7  21    2.66    2.45   0
   4  -1  26    6.63    2.11   0
   4   3  26    2.18    2.24   0
   5  -8  18    6.06    2.32   0
   5  -7  20    2.64    2.13   0
   0   2  15   10.80    1.48   0
   1  -1  21   26.02    2.54   0
   1   3  21   13.73    2.35   0
   2  -9  12  343.94    4.52   0
   2  -7  18  369.72    5.49   0
   2  -6  20    2.52    2.52   0
   2  -5  21   59.71    3.20   0
   2  -1  24    1.33    2.52   0
   2   3  24   45.11    3.35   0
   3  -6  22   -0.09    2.43   0
   3  -5  23    8.20    2.59   0
   3  -4  24    8.82    2.56   0
   3  -2  25    0.43    2.31   0
   4  -6  22   -0.22    2.75   0
   4   0  26    4.28    2.15   0
   4   1  26    2.73    2.31   0
   0  -2  13  700.30    4.94   0
   1  -7  11    9.53    1.59   0
   1  -6  15 1100.25    7.63   0
   1  -5  17   87.92    2.62   0
   1  -4  18  346.31    4.87   0
   1  -2  20   77.20    3.03   0
   1   1  21   25.36    2.52   0
   1   2  21  159.63    3.70   0
   2  -9  11  228.15    3.67   0
   2  -8  15    9.32    2.28   0
   2   0  24   12.88    2.66   0
   2   1  24    3.06    2.51   0
   2   5  23  157.92    3.88   0
   3  -7  20   70.83    3.42   0
   3   4  25    1.44    2.41   0
   4  -9  16    4.33    2.65   0
   4  -5  23   30.25    2.74   0
   4  -4  24   11.43    2.32   0
   4  -2  25    8.33    2.13   0
   5  -7  19    3.32    2.38   0
   5  -5  22    1.52    2.00   0
   0   0  14   56.63    1.89   0
   1  -7  10   97.27    2.24   0
   1  -6  14   64.01    2.32   0
   1  -5  16  432.25    4.99   0
   1  -1  20   21.75    2.38   0
   1   4  20   21.88    2.24   0
   2  -9  10  703.03    5.67   0
   2  -7  17    2.02    2.28   0
   2  -6  19   90.08    3.39   0
   3  -6  21   25.61    2.80   0
   3  -5  22   19.97    2.69   0
   3  -4  23    2.00    2.37   0
   3  -3  24  161.70    4.23   0
   3  -1  25  258.99    4.92   0
   3   3  25  262.98    4.67   0
   4  -8  18    7.68    2.63   0
   4   4  25    2.29    2.24   0
   1  -4  17  336.65    4.50   0
   1  -2  19  267.43    4.29   0
   1   0  20   42.88    2.48   0
   1   3  20    5.69    2.09   0
   2  -5  20  338.09    5.39   0
   2  -4  21   62.32    3.15   0
   2  -1  23  148.37    4.11   0
   3  -9  14  515.57    5.89   0
   3  -7  19   15.06    2.65   0
   3  -2  24    4.30    2.36   0
   3   1  25  261.08    4.82   0
   3   5  24  159.47    3.77   0
   4  -9  15   54.52    3.09   0
   4  -6  21   55.57    3.03   0
   4  -4  23   13.95    2.39   0
   4  -3  24    9.52    2.37   0
   4  -1  25   -0.03    1.99   0
   4   3  25   -0.03    2.24   0
   5  -8  16    1.40    2.55   0
   5  -3  23   -1.14    1.81   0
   5  -1  24    5.13    1.84   0
   1  -6  13  646.91    5.23   0
   1  -5  15  198.68    3.39   0
   1  -3  18  220.13    3.89   0
   1   1  20   22.92    2.22   0
   2  -8  13   12.97    2.30   0
   2  -6  18   10.62    2.33   0
   2   1  23  146.50    3.91   0
   2   5  22  448.92    5.64   0
   3  -6  20   19.02    2.56   0
   4  -8  17    9.40    2.90   0
   4  -5  22  106.19    3.50   0
   4  -2  24   44.00    2.98   0
   4   1  25    0.50    1.98   0
   4   2  25    7.31    2.07   0
   5  -7  18    7.66    2.24   0
   5  -5  21   -0.62    2.00   0
   5  -4  22    6.54    2.04   0
   5   0  24   27.44    2.12   0
   1  -6  12   31.69    1.76   0
   1  -4  16  513.52    5.12   0
   1   4  19  114.49    2.90   0
   2  -5  19   95.98    3.30   0
   2  -4  20   58.51    2.87   0
   2  -3  21  442.82    5.90   0
   3  -9  13    0.73    2.18   0
   3  -8  16   19.81    2.52   0
   3  -5  21   -1.64    2.31   0
   3  -4  22    0.82    2.33   0
   3  -1  24    7.82    2.32   0
   3   0  24    3.72    2.68   0
   3   4  24    6.67    2.40   0
   4  -9  14    8.38    2.50   0
   4   5  24    2.67    2.01   0
   5  -2  23    4.08    1.88   0
   5   1  24    5.68    1.92   0
   1  -5  14  284.20    3.71   0
   1  -3  17  162.66    3.26   0
   1  -2  18 1190.97    7.91   0
   1   1  19   74.97    2.58   0
   1   3  19   45.62    2.31   0
   2  -8  12   32.60    2.13   0
   2  -7  15    8.90    2.09   0
   3  -9  12  172.78    3.81   0
   3  -2  23    1.76    2.24   0
   3   1  24    9.84    2.47   0
   3   2  24    4.93    2.35   0
   4  -8  16    0.21    2.68   0
   4  -6  20   17.39    2.56   0
   4  -5  21   31.14    2.68   0
   4  -4  22   94.46    3.35   0
   4  -3  23   56.61    2.88   0
   4  -1  24    0.80    2.09   0
   4   4  24   10.18    2.12   0
   5  -8  15  132.33    3.45   0
   5  -7  17   -1.07    2.39   0
   5  -3  22    1.12    1.86   0
   1  -4  15  449.83    4.55   0
   1  -1  18   -0.78    1.62   0
   2  -8  11  217.03    3.34   0
   2  -5  18  216.55    4.10   0
   2  -2  21    4.02    2.26   0
   2   0  22  517.24    6.17   0
   2   3  22   26.87    2.50   0
   3  -7  17    7.09    2.28   0
   3   5  23    9.65    2.39   0
   4   0  24    9.12    2.13   0
   4   1  24   -1.12    1.96   0
   5  -5  20    0.95    2.06   0
   5  -4  21    1.10    2.04   0
   5  -1  23    1.38    1.88   0
   1  -5  13   12.00    1.43   0
   1  -2  17  120.49    2.77   0
   1   0  18  297.43    3.99   0
   1   4  18  338.42    4.04   0
   2  -8  10   20.08    1.93   0
   2  -7  14  508.41    5.25   0
   2  -6  16  288.42    4.30   0
   2  -4  19    2.75    2.11   0
   2  -1  21  710.07    6.93   0
   2   5  21   63.82    2.76   0
   3  -9  11   -0.97    1.95   0
   3  -5  20    2.99    1.67   0
   3  -4  21    3.70    2.21   0
   3  -1  23  166.16    4.04   0
   3   4  23    4.56    2.32   0
   3   6  22    1.76    2.50   0
   4  -6  19   61.14    3.04   0
   4  -2  23    7.92    2.18   0
   5  -2  22   15.81    2.35   0
   1  -5  12   30.26    1.58   0
   1  -4  14  759.07    5.48   0
   1   1  18   -0.98    1.53   0
   1   3  18  221.36    3.42   0
   1   5  17   85.78    2.53   0
   2   4  21   60.00    2.74   0
   3  -8  14   34.09    2.48   0
   3  -6  18   -0.70    2.17   0
   3   1  23  168.56    3.93   0
   3   2  23    1.53    2.16   0
   4  -8  15    4.08    2.40   0
   4  -5  20  228.41    4.53   0
   4  -4  21  131.45    3.69   0
   4  -3  22   50.33    2.78   0
   4   5  23   28.72    2.35   0
   5  -7  16   20.97    2.34   0
   5  -5  19    0.97    2.29   0
   5  -3  21    4.25    1.85   0
   5   1  23    1.01    1.83   0
   5   2  23    3.20    1.90   0
   6  -6  15    0.12    1.54   0
   1  -2  16 1051.66    6.65   0
   1  -1  17  518.93    4.91   0
   2  -6  15   12.35    1.87   0
   2  -5  17   81.72    2.49   0
   2  -4  18   -1.06    1.83   0
   2  -2  20  118.45    3.32   0
   2   1  21  744.56    6.87   0
   2   2  21    3.01    2.07   0
   3  -7  16  387.54    5.17   0
   3  -5  19   82.93    3.23   0
   3   5  22   19.82    2.60   0
   4   4  23   12.74    2.17   0
   4   6  22   -0.03    2.18   0
   5  -4  20    0.99    2.03   0
   5  -1  22   -0.44    1.91   0
   5   5  22   -0.31    1.64   0
   1  -5  11  186.65    2.62   0
   1  -4  13  604.71    4.65   0
   1   4  17  330.93    3.76   0
   2  -1  20  233.49    4.12   0
   2   5  20  328.48    4.43   0
   3  -8  13    8.51    2.11   0
   3  -6  17   -0.01    2.09   0
   3  -1  22    1.17    1.52   0
   4  -8  14    0.36    2.30   0
   4  -6  18    7.52    2.29   0
   4  -3  21   88.06    3.18   0
   4   1  23   33.33    2.41   0
   5  -7  15   -0.85    2.14   0
   5  -6  17   45.99    2.68   0
   5   0  22   52.98    2.51   0
   5   4  22    6.73    1.98   0
   6  -6  14   21.93    2.16   0
   6  -5  16    2.49    1.77   0
   1  -3  14  335.39    3.62   0
   1  -1  16    8.21    1.44   0
   1   1  17  511.62    4.70   0
   1   3  17  155.81    2.80   0
   2  -6  14   18.83    1.79   0
   2  -5  16   21.61    1.99   0
   2  -2  19  178.81    3.61   0
   2   0  20    4.93    1.99   0
   3  -8  12    4.78    2.18   0
   3  -5  18  230.73    4.21   0
   3   0  22   -0.96    1.97   0
   3   1  22    0.18    2.08   0
   3   4  22   -1.58    2.07   0
   3   6  21   22.30    2.63   0
   4  -5  19   47.78    2.79   0
   4  -4  20   49.81    2.82   0
   4  -1  22    6.48    2.13   0
   4   5  22  101.75    3.17   0
   5  -5  18    6.21    2.13   0
   5  -3  20   14.27    2.09   0
   5  -2  21    2.91    1.87   0
   5   1  22   -0.41    1.89   0
   5   2  22   15.60    1.98   0
   5   3  22   -0.16    1.79   0
   5   6  21    0.95    1.63   0
   6  -3  18    2.38    1.73   0
   1   5  16  408.90    3.90   0
   2  -4  17    1.09    1.25   0
   2   1  20  230.57    3.99   0
   2   2  20  114.19    3.03   0
   2   3  20  310.78    4.42   0
   2   4  20   58.16    2.57   0
   2   6  19   83.96    2.64   0
   3  -4  19   -1.14    1.97   0
   3  -3  20   26.59    2.35   0
   3   2  22   15.81    2.29   0
   4  -7  15    9.50    2.63   0
   4   0  22  131.75    3.48   0
   5  -7  14   21.38    2.56   0
   5  -4  19   62.78    2.75   0
   6  -5  15    3.39    1.99   0
   1   0  16 1651.67    7.85   0
   1   4  16  500.10    4.27   0
   2  -6  13  125.89    2.66   0
   2  -5  15  111.34    2.70   0
   2  -1  19  590.05    5.86   0
   3  -8  11    2.11    1.78   0
   3  -6  16   43.66    2.50   0
   3   5  21   -2.04    2.07   0
   4  -4  19   99.20    3.29   0
   4   1  22    6.89    2.09   0
   4   2  22   37.89    2.43   0
   4   3  22   54.26    2.61   0
   4   4  22   97.50    2.98   0
   4   6  21   51.47    2.67   0
   5  -2  20   10.25    2.33   0
   5   5  21    0.49    1.67   0
   6  -6  13   35.62    1.93   0
   1  -4  11   42.64    1.52   0
   1  -3  13  239.51    2.84   0
   1  -2  14  412.36    3.83   0
   1  -1  15  406.30    3.92   0
   1   3  16   53.94    1.86   0
   2  -7  10 1336.27    6.76   0
   2  -4  16    0.14    1.59   0
   2  -3  17  117.08    2.88   0
   2   5  19  115.94    2.95   0
   3  -5  17    7.45    2.08   0
   3  -4  18   62.09    2.67   0
   3  -3  19  119.90    3.30   0
   3  -2  20   42.91    2.58   0
   3   4  21    2.49    2.06   0
   4  -6  16   30.25    2.52   0
   5  -5  17    1.36    2.05   0
   5  -3  19    9.62    2.07   0
   5   1  21   -1.02    1.76   0
   6  -3  17    9.14    1.83   0
   6  -2  18   46.43    2.17   0
   1   5  15  171.19    2.56   0
   2  -7   9    0.44    1.22   0
   2  -6  12  204.27    3.03   0
   2  -5  14  135.96    2.76   0
   2   1  19  592.02    5.67   0
   2   4  19    3.28    1.82   0
   2   6  18   10.90    2.14   0
   3  -8  10   -1.14    1.64   0
   3  -7  13   20.15    2.02   0
   3  -6  15    5.95    1.97   0
   3  -1  20   26.17    2.29   0
   3   6  20   15.35    2.17   0
   4  -8  11  263.76    4.27   0
   4   5  21   29.65    2.31   0
   4   7  20   91.57    2.80   0
   5  -7  13   16.33    2.27   0
   5   2  21    2.99    1.91   0
   5   3  21    3.31    1.90   0
   5   6  20   19.18    1.79   0
   6  -6  12    2.31    1.89   0
   6  -5  14    6.10    1.86   0
   1  -3  12  135.13    2.23   0
   1  -1  14  152.49    2.42   0
   1   4  15  451.24    3.91   0
   2  -4  15   72.24    2.28   0
   2  -1  18   71.18    2.46   0
   2   2  19  180.40    3.39   0
   3  -8   9   21.58    2.06   0
   3  -5  16  378.93    4.85   0
   4  -5  17    2.59    2.13   0
   4  -4  18    8.95    2.21   0
   4   1  21  330.70    4.85   0
   5  -5  16   13.92    2.21   0
   5  -2  19    0.87    1.88   0
   5   7  19    2.13    1.69   0
   6  -2  17    6.82    1.99   0
   6  -1  18    2.31    1.65   0
   1  -2  13   23.78    1.11   0
   1   3  15  613.63    4.45   0
   2  -7   8  797.12    4.81   0
   2  -5  13  199.19    3.02   0
   2  -2  17    5.54    1.23   0
   2   0  18   -0.76    1.60   0
   2   5  18  205.83    3.41   0
   3  -3  18  409.26    5.17   0
   4  -8  10   -0.99    1.94   0
   4  -7  13   12.98    2.23   0
   4  -1  20   29.24    2.41   0
   4   2  21   25.70    2.28   0
   4   3  21   86.90    2.88   0
   4   6  20   19.23    2.18   0
   5  -7  12   19.23    2.28   0
   5  -6  14   14.81    2.27   0
   5  -4  17  100.04    3.17   0
   5  -3  18    6.87    2.14   0
   5   0  20   48.03    2.52   0
   5   1  20    0.47    2.19   0
   5   5  20    1.18    1.71   0
   6  -5  13   11.77    2.15   0
   6  -3  16    7.37    1.87   0
   6   0  18   49.45    2.29   0
   1   0  14  931.28    5.35   0
   2   1  18   69.18    2.37   0
   2   4  18    1.67    1.69   0
   3  -1  19  225.20    4.03   0
   3   1  20   25.30    1.82   0
   3   2  20   40.65    2.46   0
   3   3  20   25.10    2.25   0
   3   4  20    4.67    2.03   0
   4  -2  19   -1.03    2.08   0
   4   0  20  437.45    5.48   0
   5  -1  19    0.98    1.94   0
   5   3  20   16.52    2.09   0
   5   4  20    1.74    1.75   0
   6  -1  17    5.62    1.97   0
   6   1  18    3.20    1.71   0
   1  -1  13  784.65    4.78   0
   2  -4  14    9.71    1.47   0
   2  -3  15   25.28    1.67   0
   2   2  18  220.23    3.54   0
   2   6  17   17.97    1.84   0
   3  -7  11   -0.94    1.61   0
   3  -6  13   18.91    1.86   0
   3  -5  15  316.27    4.34   0
   4  -7  12  155.74    3.49   0
   4  -4  17    0.59    2.05   0
   4  -3  18   12.71    2.19   0
   4   1  20   25.96    2.37   0
   4   5  20  211.65    3.80   0
   4   7  19    6.72    1.98   0
   5  -7  11    3.56    2.01   0
   5  -6  13  106.53    3.30   0
   5  -5  15    5.89    2.10   0
   5  -2  18  146.50    3.55   0
   6  -3  15    6.75    1.80   0
   6  -2  16    5.84    1.80   0
   6   3  18    2.19    1.63   0
   1   3  14  296.06    3.01   0
   1   4  14  696.32    4.45   0
   2  -5  12  723.52    5.13   0
   3  -4  16  110.64    2.70   0
   3  -3  17  587.05    5.88   0
   3   5  19   84.54    2.77   0
   3   7  18  385.39    4.68   0
   4  -1  19   75.09    2.88   0
   4   2  20   44.68    2.52   0
   4   3  20   32.71    2.31   0
   5  -4  16   98.62    3.10   0
   5  -3  17    4.58    2.05   0
   5   5  19    1.99    1.84   0
   5   7  18    5.72    1.80   0
   6  -5  12    7.93    1.97   0
   2  -6   9  379.28    3.45   0
   2  -1  16    0.98    1.35   0
   2   1  17  152.00    2.93   0
   2   5  17   82.48    2.42   0
   3  -7  10   36.49    1.97   0
   3  -5  14  722.18    6.05   0
   3  -1  18   14.71    2.01   0
   3   1  19  222.76    3.90   0
   3   2  19   14.65    2.06   0
   3   4  19    1.26    1.92   0
   4  -7  11   -0.57    1.96   0
   4  -5  15    0.32    1.98   0
   4  -2  18   82.23    3.02   0
   4   6  19   60.57    2.58   0
   5  -7  10   13.16    2.13   0
   5  -1  18   12.51    2.16   0
   5   1  19    0.47    1.88   0
   5   2  19    1.55    1.96   0
   5   3  19    6.52    1.97   0
   5   4  19   62.49    2.60   0
   6  -1  16    6.67    1.74   0
   6   1  17    2.17    1.74   0
   2  -5  11   77.56    1.94   0
   2  -3  14  177.02    2.87   0
   2   2  17    5.47    1.55   0
   2   4  17    1.43    1.59   0
   3  -4  15    1.40    1.73   0
   3  -3  16   92.44    2.72   0
   3   6  18    1.17    2.10   0
   4   1  19   67.65    2.77   0
   4   5  19   47.04    2.46   0
   5  -6  12    7.37    2.16   0
   5  -4  15  138.00    3.49   0
   5  -3  16    1.88    2.00   0
   5  -2  17   35.56    2.50   0
   5   6  18    4.22    1.91   0
   6  -5  11   13.48    2.10   0
   6  -3  14   -0.53    1.80   0
   6  -2  15    3.45    1.81   0
   6   2  17    8.49    1.83   0
   6   3  17    9.33    1.82   0
   6   4  17   11.13    1.78   0
   1   1  13  787.49    4.64   0
   2   0  16   36.61    1.84   0
   2   6  16  254.31    3.42   0
   3  -7   9   38.78    1.89   0
   3   0  18   75.74    2.65   0
   4  -7  10  174.20    3.47   0
   4  -5  14   80.00    2.86   0
   4   2  19    0.49    1.93   0
   4   3  19  188.77    3.80   0
   4   4  19   94.42    3.03   0
   4   7  18   67.85    2.59   0
   5  -7   9    8.78    2.06   0
   6   0  16    5.99    1.86   0
   2  -4  12  180.81    2.71   0
   2  -1  15  134.26    2.61   0
   2   1  16    2.12    1.40   0
   2   5  16   17.83    1.95   0
   3  -5  13  319.73    4.09   0
   3  -1  17  593.21    5.82   0
   3   1  18   14.38    2.00   0
   3   2  18   -2.38    1.75   0
   3   5  18  244.09    3.90   0
   3   7  17    4.32    1.86   0
   4  -6  12   -0.03    1.99   0
   4  -3  16    3.00    2.04   0
   4   0  18    5.48    1.97   0
   4   6  18    5.79    2.23   0
   4   8  17    6.02    2.07   0
   5  -6  11   23.35    2.27   0
   5  -1  17   23.66    2.34   0
   5   1  18   12.91    2.12   0
   5   2  18  140.77    3.50   0
   5   4  18   26.48    2.23   0
   5   7  17    0.55    1.66   0
   6  -5  10    6.92    2.01   0
   6  -4  12   80.67    2.74   0
   6  -3  13   -0.20    2.11   0
   6  -1  15   -0.36    1.81   0
   6   5  16    2.58    1.62   0
   2  -3  13  806.33    5.43   0
   2   2  16    0.59    1.40   0
   2   4  16   -0.28    1.49   0
   3  -7   8  287.88    3.44   0
   3  -4  14   22.43    1.96   0
   3  -3  15  266.15    3.97   0
   3  -2  16   13.39    1.90   0
   3   3  18  382.88    4.79   0
   4  -7   9   23.92    2.17   0
   4  -5  13  160.63    3.75   0
   5  -7   8    3.74    2.03   0
   5  -4  14  132.89    3.43   0
   5  -3  15   27.97    2.49   0
   5  -2  16  112.54    3.34   0
   5   3  18    8.35    2.07   0
   5   8  16    2.16    1.87   0
   6  -2  14    6.63    1.90   0
   6   2  16    7.26    1.92   0
   6   3  16    6.30    1.86   0
   6   4  16    1.73    1.75   0
   3  -6  10    6.87    1.53   0
   3  -5  12  228.70    3.46   0
   3   6  17   -1.54    1.80   0
   4   2  18   73.94    2.84   0
   4   3  18   12.68    2.08   0
   4   4  18    9.05    2.01   0
   4   5  18   17.53    2.19   0
   4   7  17    4.97    2.21   0
   5  -6  10    5.68    2.14   0
   5   6  17   41.23    2.23   0
   6  -5   9   38.14    2.41   0
   6  -4  11  141.04    3.31   0
   2  -1  14   39.30    1.69   0
   2   6  15   13.42    1.62   0
   3  -7   7   22.00    1.60   0
   3  -4  13    1.76    1.53   0
   3  -1  16  115.11    2.97   0
   3   5  17    6.62    1.91   0
   4  -7   8  455.66    4.86   0
   4  -4  14    3.66    1.96   0
   4  -3  15   46.75    2.58   0
   4  -2  16    0.22    1.93   0
   5  -4  13   17.96    2.33   0
   5  -2  15   11.51    2.18   0
   5  -1  16    2.48    2.13   0
   5   1  17   21.45    2.31   0
   5   2  17   33.60    2.48   0
   5   5  17   -0.35    1.90   0
   6  -3  12    0.02    1.97   0
   6  -2  13   -0.47    1.93   0
   6  -1  14    4.80    1.94   0
   6   5  15    2.69    2.00   0
   2  -2  13    4.36    1.22   0
   2   1  15  141.15    2.63   0
   2   5  15  103.96    2.42   0
   3  -3  14   45.84    2.17   0
   3  -2  15   36.28    2.10   0
   3   2  17   57.89    2.49   0
   3   3  17  600.17    5.76   0
   3   7  16  381.23    4.50   0
   4  -6  10   38.30    2.37   0
   4  -5  12  126.35    3.25   0
   4   6  17    1.10    1.97   0
   5  -6   9   10.54    2.19   0
   5  -5  11    0.35    2.04   0
   5  -3  14   35.29    2.48   0
   5   3  17    5.62    2.13   0
   5   4  17   97.85    3.06   0
   5   7  16   21.45    2.00   0
   6  -5   8   21.13    2.53   0
   6  -4  10   54.11    2.65   0
   6   2  15    4.85    1.89   0
   6   3  15    7.95    1.96   0
   6   4  15   10.02    1.97   0
   6   7  14    0.02    1.75   0
   7  -2   8    4.79    1.78   0
   2  -4  10    1.64    1.12   0
   2   0  14   43.18    1.75   0
   2   2  15   55.13    1.92   0
   3  -7   6 1358.83    6.62   0
   3  -6   9    0.57    1.44   0
   3  -5  11   18.80    1.70   0
   3   0  16   41.42    2.21   0
   4  -7   7   -3.32    1.83   0
   4  -4  13   16.75    2.23   0
   4  -2  15   34.73    2.37   0
   4   1  17  105.52    2.86   0
   5   6  16   31.57    2.20   0
   5   8  15  157.38    3.10   0
   6  -3  11   46.12    2.55   0
   6  -1  13   -1.23    1.87   0
   6   0  14   19.74    2.12   0
   6   8  13   74.73    2.21   0
   7  -3   6    1.14    1.36   0
   7  -1   9    7.25    1.74   0
   3  -4  12    6.96    1.62   0
   4  -5  11   20.42    2.17   0
   4  -3  14   53.61    2.62   0
   4   0  16   49.53    2.59   0
   4   4  17   -0.17    1.94   0
   4   7  16    0.51    2.05   0
   5  -6   8    6.01    2.18   0
   5  -4  12    1.80    2.10   0
   5  -3  13   43.48    2.67   0
   5  -2  14  119.59    3.53   0
   5  -1  15   14.83    2.31   0
   5   1  16    2.45    2.08   0
   5   2  16  105.43    3.35   0
   5   5  16   15.38    2.17   0
   6  -5   7   29.37    2.68   0
   6  -4   9   31.18    2.69   0
   7  -2   7    0.26    1.80   0
   2  -2  12  226.07    2.95   0
   2   1  14   39.77    1.76   0
   2   6  14   19.59    1.65   0
   3  -6   8    3.76    1.46   0
   3  -5  10    5.64    1.52   0
   3  -3  13  725.37    5.91   0
   3  -2  14   34.74    2.02   0
   3   2  16   12.41    1.95   0
   3   3  16   94.21    2.76   0
   4  -7   6    0.49    2.17   0
   4  -6   9  260.34    4.02   0
   4   8  15    3.11    2.42   0
   5  -5  10   31.03    2.39   0
   5   3  16    4.87    2.24   0
   5   4  16  104.63    3.30   0
   5   7  15    2.47    1.90   0
   6   2  14    8.20    2.04   0
   6   3  14    1.27    1.92   0
   6   5  14    6.95    1.93   0
   6   7  13    1.97    1.85   0
   2  -4   9  444.19    3.71   0
   2   2  14   59.35    1.96   0
   4  -3  13   84.78    3.01   0
   4  -2  14    3.06    2.01   0
   4  -1  15   81.78    2.63   0
   4   1  16   11.50    2.12   0
   4   2  16   -1.18    1.95   0
   4   6  16   29.71    2.29   0
   5  -4  11   27.56    2.50   0
   5  -1  14    3.63    2.19   0
   5   8  14   19.90    2.31   0
   6  -5   6    0.16    2.13   0
   6  -3  10   28.23    2.46   0
   6  -1  12   14.58    2.34   0
   6   8  12    7.28    1.85   0
   7  -3   4    0.58    1.94   0
   7  -2   6    6.13    1.96   0
   2   3  14  190.05    2.94   0
   2   4  14   10.63    1.49   0
   3  -4  11    3.89    1.51   0
   4  -6   8    6.78    2.04   0
   4   3  16    1.52    2.04   0
   4   4  16   13.02    2.20   0
   5  -5   9   15.66    2.37   0
   5  -3  12    4.95    2.30   0
   5  -2  13    7.95    2.31   0
   5   1  15   14.27    2.33   0
   5   2  15   12.49    2.28   0
   6  -4   8    7.70    2.16   0
   6   1  13    1.82    2.01   0
   6   6  13   80.75    2.79   0
   7   1   9    7.94    1.69   0
   2  -3  10  990.77    5.49   0
  -5 -15  -2    1.22    1.41   0
  -5  -7 -11    4.84    2.00   0
  -4 -15  -4    5.26    1.87   0
  -4 -13  -8   70.74    2.74   0
  -4 -12  -9   73.13    2.83   0
  -4 -11 -10  118.59    3.18   0
  -4 -10 -11   15.37    2.02   0
  -3 -17   4   13.08    1.92   0
  -3 -13  -8  119.71    3.27   0
  -3 -10 -11    0.20    1.80   0
  -3  -8 -12    3.16    1.72   0
  -3  -3 -12  304.98    3.17   0
  -2 -16   1   15.50    2.51   0
  -2 -14  -5    2.20    1.99   0
  -2 -12  -8  358.12    4.71   0
  -2 -11  -9   26.38    2.11   0
  -2 -10 -10    2.65    1.66   0
  -2  -8 -11  208.78    3.24   0
  -2  -3 -11  735.78    4.33   0
  -1 -12  -5  301.73    3.93   0
  -1  -9  -8  359.80    3.77   0
  -1  -7  -9   -0.86    1.03   0
  -1  -6  -9  864.89    4.92   0
  -6 -10  -7   14.01    1.87   0
  -5 -14  -5    0.54    1.51   0
  -5 -11  -9    4.24    1.83   0
  -5  -8 -11   15.20    2.11   0
  -4 -17   3    0.44    1.44   0
  -4 -15  -5    0.48    1.80   0
  -3 -17   2    1.84    2.01   0
  -3 -17   3   66.88    2.44   0
  -3 -16  -2    3.62    1.82   0
  -3 -14  -7   -0.02    1.91   0
  -3  -9 -12  155.83    3.19   0
  -2 -16   0  150.20    3.51   0
  -2 -15  -3   36.86    2.47   0
  -2 -13  -7   27.18    2.27   0
  -1 -14  -1   12.97    2.00   0
   0 -10  -2  559.58    4.04   0
  -6 -11  -6    0.34    1.13   0
  -6 -11  -6    0.87    0.81   0
  -6  -9  -8    0.78    1.77   0
  -5 -13  -7    6.01    1.71   0
  -4 -17   2    1.97    1.63   0
  -4 -16  -3    1.63    1.96   0
  -4 -12 -10   65.29    2.62   0
  -4  -9 -12  242.66    3.89   0
  -4  -6 -13   82.78    2.66   0
  -3 -17   1   11.98    2.09   0
  -3 -16  -3    4.87    1.85   0
  -3 -12 -10   48.78    2.47   0
  -3  -5 -13  348.57    3.78   0
  -2 -15  -4    1.17    2.25   0
  -2 -14  -6   11.49    2.07   0
  -2  -6 -12  200.65    2.89   0
  -2  -5 -12  714.90    4.84   0
  -1 -14  -2  369.58    4.45   0
  -1 -12  -6  358.24    4.26   0
  -1 -11  -7   20.55    1.74   0
  -1 -10  -8  142.49    2.73   0
  -5 -14  -6   72.13    2.38   0
  -5  -9 -11    6.34    1.95   0
  -4 -15  -6   -0.08    1.72   0
  -4 -13  -9   35.07    2.32   0
  -4 -11 -11   17.51    2.02   0
  -4 -10 -12    3.10    1.79   0
  -4  -7 -13   10.70    1.85   0
  -4  -5 -13  159.72    2.96   0
  -3 -15  -6    0.02    1.91   0
  -3 -14  -8   17.43    2.10   0
  -3 -10 -12   41.85    2.29   0
  -3  -8 -13    7.73    1.78   0
  -3  -4 -13    0.03    1.35   0
  -2 -16  -1   13.77    2.15   0
  -2 -13  -8   45.79    2.49   0
  -2 -10 -11  141.95    3.08   0
  -2  -8 -12   32.60    1.88   0
  -2  -4 -12  203.70    2.61   0
  -1 -15   1   40.73    2.51   0
  -1  -9  -9   13.82    1.47   0
  -1  -6 -10   37.67    1.45   0
  -6 -10  -8    7.55    1.74   0
  -5 -13  -8    7.48    1.65   0
  -5 -12  -9   13.98    1.85   0
  -5  -7 -12   20.66    2.15   0
  -4 -16  -4   -0.36    1.73   0
  -3 -16  -4   -0.18    1.79   0
  -3  -9 -13   -1.41    1.66   0
  -3  -3 -13  693.92    4.72   0
  -2 -15  -5    2.35    2.00   0
  -2  -3 -12  366.34    3.23   0
  -1 -13  -5   67.99    2.44   0
  -1 -11  -8   52.99    2.15   0
  -1  -7 -10   94.39    2.04   0
  -5 -10 -11    3.24    1.74   0
  -5  -8 -12    1.83    1.90   0
  -4 -17  -1   73.78    2.32   0
  -4 -15  -7   20.72    2.01   0
  -4 -13 -10   50.97    2.48   0
  -4 -12 -11   86.68    2.81   0
  -4 -11 -12   23.02    2.06   0
  -3 -16  -5   -0.05    1.74   0
  -3 -15  -7  177.79    3.59   0
  -3 -13 -10    0.46    1.90   0
  -3 -12 -11    9.90    1.88   0
  -2 -16  -3   78.93    2.80   0
  -2 -13  -9  332.62    4.69   0
  -2 -12 -10   96.85    2.95   0
  -1 -15  -1   42.11    2.58   0
  -1 -12  -7  183.46    3.34   0
  -1 -10  -9  283.85    3.69   0
   0 -12   0   74.76    2.06   0
   0 -10  -4   65.67    1.83   0
  -5 -14  -7   -0.50    1.43   0
  -5  -9 -12   21.77    2.13   0
  -4 -17  -2    1.93    1.56   0
  -4 -16  -5    0.03    1.69   0
  -4 -14  -9   30.57    2.19   0
  -4 -10 -13   49.51    2.54   0
  -3 -14  -9   63.66    2.63   0
  -3 -10 -13   -0.92    1.80   0
  -3  -6 -14  128.60    2.74   0
  -2 -17   1  137.65    3.16   0
  -2 -15  -6    1.30    1.99   0
  -2  -7 -13    2.30    1.47   0
  -2  -6 -13  126.80    2.50   0
  -1 -14  -4  208.80    3.64   0
  -1 -13  -6   53.27    2.37   0
  -1  -9 -10    1.89    1.36   0
   0 -12  -1  366.80    3.72   0
   0  -8  -6   68.01    1.70   0
  -5 -13  -9    0.13    1.57   0
  -4  -8 -14    2.01    1.84   0
  -4  -5 -14   80.92    2.45   0
  -3 -16  -6    2.65    1.88   0
  -3 -15  -8   19.13    2.15   0
  -3 -13 -11   13.35    2.10   0
  -3 -12 -12    0.97    1.92   0
  -3  -8 -14   29.03    2.03   0
  -3  -4 -14   22.83    1.68   0
  -2 -17   0  188.47    3.57   0
  -2  -8 -13    9.96    1.70   0
  -2  -4 -13   72.98    1.89   0
  -1 -15  -2    0.46    1.93   0
  -1 -12  -8  107.85    2.85   0
  -1 -11  -9   24.42    1.92   0
  -1 -10 -10   28.63    1.85   0
  -1  -7 -11    8.56    1.27   0
  -1  -6 -11    4.31    1.15   0
  -1  -5 -11  178.94    2.44   0
   0 -12  -2  961.23    5.97   0
  -5 -10 -12    1.34    1.82   0
  -5  -8 -13  102.01    3.04   0
  -4 -17  -3    0.26    1.23   0
  -4 -17  -3    0.91    0.88   0
  -4 -16  -6   -1.37    1.62   0
  -4 -14 -10   66.87    2.57   0
  -4 -13 -11  206.74    3.77   0
  -4 -12 -12   66.04    2.55   0
  -4 -11 -13   32.51    2.14   0
  -4  -9 -14    9.28    1.96   0
  -3 -17  -4   13.89    2.22   0
  -3 -14 -10   45.05    2.49   0
  -3 -11 -13   48.56    2.47   0
  -3  -9 -14  502.59    5.32   0
  -2 -17  -1  143.06    3.29   0
  -2 -16  -5   15.35    2.48   0
  -2 -15  -7  115.19    3.22   0
  -2 -14  -9    3.92    2.02   0
  -2 -13 -10   60.28    2.70   0
  -2 -12 -11    9.62    1.57   0
  -2 -11 -12  470.23    5.39   0
  -2  -9 -13   25.84    1.98   0
  -1 -15  -3   50.68    2.52   0
  -1 -13  -7  211.03    3.75   0
  -1  -8 -11  109.17    2.37   0
  -5  -9 -13    2.56    2.15   0
  -4 -17  -4    1.02    1.61   0
  -3 -18   1    5.16    1.74   0
  -3 -16  -7    2.21    1.89   0
  -2 -17  -2    2.19    2.06   0
  -2 -10 -13   93.58    2.87   0
  -2  -7 -14  532.17    5.01   0
  -2  -6 -14   17.40    1.66   0
  -2  -3 -13  854.50    4.93   0
  -1 -14  -6  352.40    4.74   0
  -1 -12  -9    3.21    1.83   0
  -1 -11 -10    4.75    1.75   0
   0 -12  -3   12.86    1.72   0
   0 -10  -6  223.29    3.01   0
   0  -8  -7  451.24    3.73   0
  -5 -13 -10   -0.68    1.53   0
  -5 -11 -12    3.22    1.81   0
  -4 -16  -7    2.20    1.61   0
  -4 -15  -9   24.75    2.10   0
  -4 -13 -12    0.37    2.03   0
  -4  -7 -15    6.79    2.28   0
  -3 -18  -1    4.06    1.90   0
  -3 -17  -5  146.38    3.23   0
  -3 -13 -12   27.48    2.30   0
  -3 -12 -13    8.24    2.01   0
  -3  -8 -15  122.43    3.04   0
  -3  -7 -15  138.76    3.06   0
  -3  -6 -15    6.45    1.75   0
  -3  -5 -15  327.61    3.92   0
  -2 -17  -3   21.63    2.47   0
  -2 -16  -6    1.56    2.06   0
  -2 -15  -8    1.07    2.03   0
  -1 -15  -4    9.14    2.09   0
  -1 -13  -8    6.08    1.96   0
  -1 -10 -11    1.14    1.65   0
  -1  -7 -12  167.47    2.80   0
  -1  -6 -12   29.55    1.54   0
  -5 -10 -13   85.34    2.71   0
  -4 -17  -5    1.28    1.63   0
  -4 -14 -11   20.54    2.03   0
  -4 -12 -13    0.56    1.71   0
  -4 -11 -14   58.82    2.63   0
  -4  -8 -15    4.53    1.95   0
  -3 -18  -2    0.72    1.89   0
  -3 -16  -8   -0.11    1.82   0
  -3 -15 -10   79.63    2.89   0
  -3 -11 -14  115.58    3.23   0
  -3  -9 -15   50.52    2.49   0
  -3  -4 -15    1.67    1.79   0
  -2 -14 -10   69.57    2.90   0
  -2 -11 -13  193.66    3.84   0
  -2  -9 -14  225.05    3.86   0
  -1 -16  -1   59.82    2.68   0
  -1 -15  -5   72.53    2.84   0
  -1 -14  -7   48.48    2.55   0
  -1  -8 -12    0.40    1.39   0
  -1  -5 -12   32.53    1.48   0
   0 -12  -4   55.38    2.15   0
  -5 -13 -11    8.79    1.66   0
  -4  -9 -15   50.01    2.43   0
  -3 -17  -6    8.76    1.94   0
  -3 -13 -13   33.82    2.39   0
  -3 -10 -15    0.66    1.94   0
  -2 -17  -4    1.87    2.06   0
  -2 -16  -7    0.30    2.10   0
  -2 -15  -9  105.67    3.28   0
  -2 -10 -14   20.34    2.15   0
  -2  -2 -13    3.69    1.09   0
  -1 -16  -2  134.26    3.32   0
  -1 -13  -9    1.40    2.00   0
  -1 -12 -10   -0.87    1.36   0
  -1 -11 -11   17.94    2.04   0
  -1  -4 -12   35.31    1.47   0
   0 -10  -7  199.07    3.01   0
   0  -8  -8    7.09    0.97   0
  -5 -11 -13   -0.17    1.81   0
  -4 -13 -13    6.41    1.83   0
  -3 -18  -3   -0.20    1.75   0
  -3 -17  -7   50.89    2.61   0
  -3 -16  -9    8.32    1.99   0
  -3 -14 -12    3.28    2.01   0
  -3 -12 -14    8.43    2.12   0
  -3  -6 -16   36.97    2.40   0
  -2 -17  -5    3.57    2.15   0
  -2 -14 -11    7.13    2.24   0
  -2 -13 -12   28.60    2.45   0
  -2 -11 -14    8.67    2.14   0
  -2  -8 -15   10.56    1.90   0
  -2  -7 -15   10.09    1.87   0
  -2  -6 -15   14.54    1.82   0
  -1 -16  -3   -0.61    2.20   0
  -1 -10 -12    3.04    1.84   0
  -1  -7 -13   -0.13    1.42   0
  -4 -16  -9    6.67    1.83   0
  -4 -15 -11  105.26    3.04   0
  -4 -14 -12   19.44    1.94   0
  -4  -8 -16    0.58    2.31   0
  -4  -7 -16    0.64    2.05   0
  -4  -6 -16   28.11    2.58   0
  -3 -18  -4    0.71    1.76   0
  -3 -15 -11   65.84    2.66   0
  -3 -11 -15  138.33    3.45   0
  -3  -5 -16  369.12    4.33   0
  -2 -18  -1    0.19    2.03   0
  -2 -16  -8   28.16    2.46   0
  -2  -9 -15    3.05    2.00   0
  -1 -16  -4  104.59    3.25   0
  -1 -13 -10   11.30    2.21   0
  -1 -12 -11   27.55    2.39   0
  -1 -11 -12   40.73    2.47   0
  -1  -9 -13   13.45    1.91   0
  -1  -8 -13  142.90    2.94   0
  -1  -6 -13  674.83    5.13   0
  -1  -5 -13   12.13    1.36   0
   0 -12  -6   33.45    2.14   0
   0 -10  -8   41.86    1.95   0
   0  -8  -9 1967.77    8.30   0
  -5 -12 -13    1.67    1.92   0
  -5 -10 -14    6.01    1.97   0
  -4 -11 -15    1.07    1.71   0
  -4  -9 -16    1.55    2.02   0
  -3 -17  -8   33.03    2.24   0
  -3 -16 -10    0.70    1.95   0
  -3 -14 -13    4.17    2.00   0
  -3 -13 -14   35.28    2.48   0
  -3 -10 -16   38.80    2.56   0
  -2 -18  -2    4.57    2.08   0
  -2 -14 -12   25.98    2.54   0
  -2 -10 -15    0.88    2.04   0
  -2  -4 -15   74.26    2.24   0
  -1 -16  -5   -1.22    2.60   0
  -5 -11 -14   12.87    2.17   0
  -4 -14 -13    1.36    1.77   0
  -4 -13 -14   12.90    1.92   0
  -4 -10 -16    2.32    1.87   0
  -3 -15 -12    1.67    2.02   0
  -3 -12 -15    2.25    2.02   0
  -3  -4 -16  112.88    2.72   0
  -2 -16  -9   43.05    2.69   0
  -2 -11 -15    2.91    2.22   0
  -2  -8 -16    2.85    2.02   0
  -2  -7 -16  149.41    3.33   0
  -1 -15  -8   58.45    3.04   0
  -1 -13 -11    0.66    2.23   0
  -1 -12 -12   49.42    2.74   0
  -1  -7 -14  443.52    4.72   0
  -1  -4 -13  581.05    4.43   0
   0 -14  -3   21.61    2.62   0
   0 -10  -9 1061.97    6.97   0
  -4 -15 -12    7.87    1.86   0
  -4 -12 -15    0.86    1.64   0
  -3 -16 -11   16.04    2.12   0
  -3 -11 -16  143.96    3.59   0
  -3  -7 -17    4.63    2.01   0
  -3  -6 -17    0.78    1.96   0
  -2 -18  -4   13.92    2.26   0
  -2  -9 -16    0.48    2.12   0
  -2  -5 -16   20.39    2.21   0
  -2  -3 -15   26.66    1.94   0
  -1 -16  -6  182.41    4.00   0
  -1 -14 -10   52.00    2.95   0
  -1 -11 -13  125.81    3.44   0
  -1  -9 -14  118.17    3.15   0
  -1  -8 -14   13.00    1.48   0
  -1  -6 -14   63.37    2.17   0
   0 -14  -4    7.05    2.50   0
   0  -8 -10    7.24    1.43   0
  -4  -8 -17    8.65    2.22   0
  -3 -14 -14    4.43    2.00   0
  -3 -13 -15  109.36    3.28   0
  -3 -10 -17   13.62    2.58   0
  -3  -5 -17    6.39    2.31   0
  -2 -18  -5   -1.10    2.32   0
  -2 -17  -8    4.73    2.27   0
  -2 -15 -12   39.42    2.74   0
  -2 -14 -13   23.97    2.53   0
  -2 -12 -15    8.12    2.40   0
  -2 -10 -16    2.66    2.23   0
  -1 -17  -3   16.95    2.42   0
  -1 -16  -7   21.24    2.97   0
  -1 -15  -9   50.97    2.97   0
  -1 -13 -12    1.99    2.30   0
  -1 -10 -14  426.91    5.45   0
  -1  -5 -14  280.31    3.53   0
   0 -12  -8  677.07    6.22   0
   0 -10 -10  218.53    3.66   0
  -5 -12 -14   38.54    2.23   0
  -4 -14 -14    1.15    1.75   0
  -4 -13 -15    2.07    1.73   0
  -4  -9 -17   -0.07    2.05   0
  -3 -18  -7    2.39    1.81   0
  -3 -17 -10   14.71    2.04   0
  -3 -12 -16    6.04    2.10   0
  -2 -11 -16    7.30    2.32   0
  -2  -4 -16    1.39    1.68   0
  -1 -17  -4    2.53    2.44   0
  -1 -12 -13  121.69    3.57   0
  -1 -11 -14  230.32    4.48   0
  -1  -8 -15  744.53    6.60   0
   0 -14  -5   -0.20    2.20   0
   0  -8 -11 1799.73    8.80   0
  -5 -11 -15    4.76    1.91   0
  -4 -15 -13    8.82    1.75   0
  -4 -12 -16    3.12    1.64   0
  -4 -10 -17    1.52    1.93   0
  -3 -18  -8    2.74    2.01   0
  -3 -16 -12    2.88    1.92   0
  -3 -14 -15   12.22    2.50   0
  -3  -8 -18   11.01    2.55   0
  -2 -18  -6   -0.32    2.14   0
  -2 -17  -9   75.79    3.04   0
  -2 -16 -11   15.94    2.38   0
  -2 -14 -14   10.59    2.49   0
  -2 -13 -15    4.86    2.47   0
  -2  -8 -17   26.40    2.45   0
  -2  -7 -17   -0.27    1.95   0
  -1 -17  -5  151.44    3.82   0
  -1 -15 -10   13.86    2.57   0
  -1  -9 -15   82.92    3.01   0
  -1  -7 -15    1.63    1.32   0
  -1  -6 -15 1106.65    7.29   0
  -1  -4 -14  741.32    5.28   0
   0 -14  -6   -0.06    2.23   0
   0 -12  -9  415.03    5.20   0
  -4 -11 -17    6.23    1.75   0
  -3 -15 -14    8.06    2.09   0
  -3 -13 -16   34.66    2.52   0
  -3  -6 -18   -0.51    2.10   0
  -2 -18  -7    1.71    2.40   0
  -2 -12 -16    0.92    2.37   0
  -2  -2 -15   52.67    1.91   0
  -1 -14 -12  129.06    3.90   0
  -1  -5 -15  183.20    3.20   0
  -4 -14 -15    8.27    1.79   0
  -4 -13 -16   -0.74    1.62   0
  -4  -9 -18   78.84    3.10   0
  -4  -8 -18    5.43    2.25   0
  -3 -18  -9    3.21    2.00   0
  -3 -17 -11    6.48    1.85   0
  -3 -12 -17   -1.29    2.03   0
  -3 -10 -18   10.53    2.30   0
  -3  -5 -18  228.13    4.08   0
  -2 -17 -10   40.28    2.75   0
  -2 -16 -12    2.46    2.20   0
  -2  -3 -16  112.75    2.63   0
  -1 -15 -11   10.77    2.65   0
  -1  -8 -16   -1.14    2.02   0
  -1  -3 -14  373.31    3.79   0
   0 -14  -7   17.07    2.60   0
   0 -12 -10   99.34    3.26   0
   0  -8 -12   17.56    1.83   0
   0  -6 -12  130.65    2.63   0
  -4 -10 -18    4.57    2.21   0
  -3 -14 -16    1.62    2.06   0
  -3 -11 -18   99.67    3.31   0
  -2 -18  -8   26.97    2.46   0
  -2 -15 -14   27.47    2.66   0
  -2 -13 -16    8.64    2.50   0
  -2  -9 -18  127.34    3.73   0
  -2  -4 -17    3.01    1.90   0
  -1 -17  -7   10.37    2.60   0
  -1 -13 -14    5.59    2.64   0
  -1 -10 -16  164.68    4.04   0
  -1  -9 -16  343.17    5.17   0
  -1  -7 -16  503.12    5.40   0
  -1  -6 -16   20.97    2.11   0
  -1  -4 -15  446.84    4.46   0
   0 -14  -8  423.87    5.71   0
   0 -10 -12  465.78    5.50   0
  -3 -17 -12   -0.04    1.88   0
  -3 -16 -14    1.07    2.23   0
  -3 -15 -15   81.52    2.86   0
  -3 -13 -17  127.52    3.44   0
  -3  -9 -19   28.18    2.53   0
  -3  -8 -19    3.20    2.29   0
  -3  -7 -19   18.21    2.52   0
  -2 -17 -11  195.59    4.13   0
  -2 -16 -13   21.55    2.49   0
  -2 -12 -17   26.74    2.74   0
  -2 -10 -18    3.93    2.43   0
  -2  -6 -18   11.31    2.31   0
  -1 -17  -8   15.56    2.94   0
  -1 -16 -10   79.79    3.41   0
  -1 -12 -15   23.34    2.19   0
  -1  -5 -16  415.04    4.72   0
   0 -12 -11  326.64    5.09   0
   0  -8 -13  529.27    5.50   0
  -4 -14 -16    2.38    1.60   0
  -3 -12 -18    1.31    2.11   0
  -3  -6 -19    3.53    2.33   0
  -2 -19  -5    2.34    2.16   0
  -2 -15 -15   13.42    2.51   0
  -2 -13 -17   11.95    2.52   0
  -2 -11 -18  179.70    4.35   0
  -2  -5 -18  221.79    3.96   0
  -1 -16 -11   10.34    2.64   0
  -1 -13 -15  126.66    3.94   0
  -1 -11 -16   18.60    2.12   0
  -1  -8 -17  653.82    6.82   0
   0 -10 -13  750.65    7.09   0
   0  -6 -13 1527.36    8.23   0
  -4  -9 -19   -0.76    2.38   0
  -3 -17 -13    6.52    1.93   0
  -3 -15 -16    5.07    2.01   0
  -3 -14 -17    3.41    2.04   0
  -3 -11 -19   34.93    2.63   0
  -3  -5 -19   75.16    3.27   0
  -2 -19  -6    0.58    1.94   0
  -2 -17 -12    4.47    2.25   0
  -2 -16 -14   16.21    2.43   0
  -2  -9 -19   -0.62    2.49   0
  -2  -8 -19   28.18    2.65   0
  -2  -3 -17  116.57    2.82   0
  -1 -17  -9    3.98    2.50   0
  -1 -10 -17  406.15    5.92   0
  -1  -9 -17   48.99    2.48   0
  -1  -7 -17    0.81    2.12   0
  -1  -6 -17  821.23    7.02   0
  -1  -2 -14  425.22    3.91   0
   0 -12 -12  247.97    4.72   0
   1 -10  -5  737.06    5.56   0
   1  -8  -6  199.18    2.94   0
  -4 -10 -19   40.73    2.46   0
  -3 -13 -18   28.24    2.38   0
  -2 -19  -7    2.33    2.15   0
  -2 -10 -19   -0.98    2.52   0
  -2  -4 -18    0.87    2.05   0
  -1 -18  -6   68.59    3.18   0
  -1 -16 -12  109.10    3.71   0
  -1 -11 -17   39.38    3.05   0
   0 -10 -14   81.03    3.28   0
   1 -11  -5  227.77    3.79   0
   1 -10  -6   83.78    2.56   0
  -4 -11 -19   15.76    2.19   0
  -3 -12 -19   -0.81    2.09   0
  -3 -10 -20   -1.31    2.54   0
  -3  -9 -20   27.23    2.60   0
  -3  -8 -20   -0.70    2.36   0
  -2 -17 -13   17.71    2.40   0
  -2 -15 -16    1.70    2.34   0
  -2 -14 -17    0.36    2.32   0
  -2 -13 -18    1.07    2.43   0
  -2 -11 -19   57.44    3.22   0
  -2  -5 -19  104.54    3.49   0
  -1 -18  -7   26.62    2.78   0
  -1 -17 -10    2.99    2.58   0
  -1 -15 -14   11.13    2.72   0
  -1 -14 -15    2.34    2.60   0
  -1 -13 -16    1.78    2.51   0
  -1  -9 -18   52.10    3.09   0
  -1  -8 -18   40.11    2.85   0
  -1  -5 -17   97.55    2.92   0
   0 -16  -6   54.76    3.19   0
   0 -14 -11   10.93    2.83   0
   0 -12 -13  296.46    5.21   0
   1 -10  -7  530.43    5.18   0
   1  -9  -7   15.13    1.78   0
  -3 -15 -17   70.68    2.75   0
  -3 -14 -18   12.25    2.17   0
  -3  -6 -20   16.43    2.52   0
  -2 -16 -15    7.53    2.25   0
  -2 -12 -19    9.00    2.57   0
  -2  -9 -20  252.80    4.88   0
  -1 -16 -13   19.70    2.75   0
  -1 -10 -18    8.34    2.65   0
  -1  -3 -16   55.18    2.20   0
  -1  -2 -15  346.96    3.76   0
   0 -16  -7   97.17    3.62   0
   0  -4 -13  768.03    5.48   0
   1  -8  -8   61.87    2.17   0
   1  -7  -8  150.37    2.69   0
  -4 -12 -19    5.90    1.90   0
  -3 -16 -16    0.67    1.82   0
  -3 -13 -19   24.72    2.33   0
  -2 -18 -12    2.47    2.25   0
  -2 -17 -14    2.20    2.14   0
  -2 -14 -18   10.24    2.36   0
  -2 -10 -20  102.06    3.70   0
  -2  -3 -18  147.18    3.22   0
  -1 -14 -16  178.58    4.56   0
  -1 -13 -17   84.72    3.70   0
  -1 -11 -18  125.35    4.08   0
   0 -16  -8   44.52    3.18   0
   0 -12 -14  107.31    3.81   0
   1 -12  -6  353.32    4.88   0
   1 -11  -7   21.08    2.22   0
   1  -8  -9   96.57    2.53   0
  -4 -10 -20   10.82    2.38   0
  -3 -12 -20    3.37    2.09   0
  -3  -8 -21    3.77    2.66   0
  -2 -16 -16    1.79    2.15   0
  -2 -13 -19  155.96    4.07   0
  -2 -11 -20   90.66    3.54   0
  -2  -6 -20    3.29    2.39   0
  -2  -4 -19    3.95    2.18   0
  -1 -18  -9    1.10    2.43   0
  -1 -16 -14   70.59    3.26   0
  -1 -12 -18  114.11    4.06   0
  -1  -9 -19   21.47    2.85   0
  -1  -8 -19  118.67    3.79   0
  -1  -5 -18  158.21    3.59   0
   0  -8 -16    1.94    2.17   0
   0  -4 -14  556.82    4.94   0
   1 -12  -7  194.70    4.04   0
   1 -11  -8   49.77    2.62   0
   1  -9  -9   14.30    1.83   0
   1  -7  -9    1.52    1.48   0
  -4 -11 -20    5.29    2.10   0
  -3 -15 -18    3.18    1.86   0
  -3 -14 -19    0.51    1.83   0
  -3 -10 -21    0.09    2.21   0
  -3  -9 -21    3.37    2.19   0
  -3  -7 -21   -0.75    2.36   0
  -1 -18 -10   -2.00    2.56   0
  -1 -14 -17    3.78    2.45   0
  -1 -11 -19    2.41    2.61   0
  -1  -7 -19    8.68    2.35   0
  -1  -3 -17  154.56    3.07   0
   0 -14 -13    1.73    2.74   0
   0 -12 -15   40.62    3.18   0
   0 -10 -16   36.43    2.98   0
   1  -9 -10    3.12    1.80   0
   1  -8 -10   20.28    1.88   0
   1  -6  -9  868.31    5.70   0
  -3 -13 -20    0.57    1.97   0
  -3 -11 -21    7.98    2.22   0
  -2 -18 -13    1.61    1.83   0
  -2 -17 -15   -0.37    1.91   0
  -2 -14 -19    1.25    2.18   0
  -2 -10 -21   84.28    3.42   0
  -2  -9 -21   13.95    2.66   0
  -1 -17 -13    9.08    2.55   0
  -1 -16 -15   -1.34    2.69   0
  -1 -15 -16    6.32    2.47   0
  -1  -2 -16 1108.91    6.60   0
   0 -16 -10  251.52    4.89   0
   0  -6 -16  173.33    3.61   0
   1 -13  -6   53.47    2.77   0
   1 -12  -8  106.29    3.31   0
   1 -10 -10   29.87    2.36   0
  -2 -16 -17    0.71    1.95   0
  -2 -13 -20   50.37    2.87   0
  -2 -11 -21   48.08    3.01   0
  -2  -4 -20   57.86    2.99   0
  -2  -3 -19  294.52    4.18   0
  -1 -18 -11    0.37    2.25   0
  -1 -12 -19   58.58    3.24   0
  -1 -10 -20   -1.38    2.35   0
  -1  -8 -20   30.87    2.91   0
   0 -16 -11    6.37    3.09   0
   0 -14 -14  134.93    4.15   0
   0  -8 -17  760.48    7.40   0
   0  -4 -15   60.44    2.22   0
   1 -12  -9    3.22    2.28   0
   1 -10 -11    1.65    2.06   0
   1  -9 -11    4.45    1.92   0
   1  -8 -11  119.03    2.93   0
  -2 -17 -16   -0.35    1.88   0
  -2 -12 -21   12.55    2.37   0
  -1 -17 -14   14.42    2.39   0
  -1 -15 -17   20.48    2.72   0
  -1 -14 -18   72.52    3.33   0
  -1 -11 -20    0.27    2.41   0
  -1  -7 -20   36.20    2.76   0
   0  -6 -17  575.17    6.00   0
   1 -13  -8    5.84    2.46   0
   1 -12 -10   -0.53    2.31   0
   1 -11 -11   21.47    2.55   0
   1  -9 -12    3.05    1.97   0
   1  -8 -12   -1.22    1.69   0
   1  -6 -11    4.96    1.12   0
   3  -9 -23    6.65    3.34   0
   3  -9 -13   -0.34    3.33   0
   3  -8 -11    5.20    3.53   0
   3  -7  -9   43.94    3.19   0
   3  -6  -8    7.80    2.66   0
   3  -5  -7  223.21    4.29   0
   3   2 -28    8.71    3.42   0
   3   4 -25   -0.45    3.36   0
   3   5 -21   -1.58    3.84   0
   3   5 -15  307.25    5.66   0
   4  -2 -19   -1.59    2.37   0
   3  -9 -22   22.75    3.73   0
   3  -9 -15   46.43    4.50   0
   3  -9 -14  481.83    7.32   0
   3  -7 -27   11.67    2.99   0
   3  -6 -28    1.65    2.73   0
   3  -5 -29    4.13    2.66   0
   3  -4  -7   97.44    3.29   0
   3  -2 -30    5.80    2.50   0
   3   2  -9   32.47    2.54   0
   3   4 -24    4.69    3.89   0
   3   4 -12    7.10    2.67   0
   3   5 -19   66.93    4.19   0
   3   5 -17    3.16    3.29   0
   3  -9 -20   24.21    4.00   0
   3  -9 -19   24.60    4.48   0
   3  -9 -18   75.92    4.99   0
   3  -9 -17    8.28    4.28   0
   3  -8 -12    1.39    3.14   0
   3  -7 -26  191.23    5.43   0
   3  -6  -9    2.07    2.59   0
   3  -5  -8  505.53    6.29   0
   3  -3  -7 1181.30    8.78   0
   3   3 -26   19.04    3.60   0
   3   4 -23    2.45    4.02   0
   3   4 -13    1.85    2.79   0
   3  -8 -23   -1.22    3.99   0
   3  -8 -13    9.33    3.52   0
   3  -6 -27    2.01    3.17   0
   3  -5 -28   42.23    3.48   0
   3  -2 -29   -0.11    2.92   0
   3  -1 -29   39.52    3.34   0
   3   2 -10    3.30    2.36   0
   3   3 -25  243.36    5.99   0
   3   4 -22    1.19    4.20   0
   3   4 -14   25.71    3.30   0
   3  -8 -22    2.71    3.64   0
   3  -8 -14   29.35    3.87   0
   3  -7 -25   14.30    3.56   0
   3  -6 -10    7.93    2.87   0
   3  -5  -9   88.64    3.63   0
   3  -2  -8   -0.14    2.26   0
   3  -1 -28    7.29    3.61   0
   3   0 -28   -0.33    3.23   0
   3   1 -27  137.42    4.99   0
   3   1  -9  849.48    7.56   0
   3   2 -26   -1.14    3.61   0
   3   4 -21   -1.75    3.61   0
   3   4 -20    5.06    4.17   0
   3   4 -16  104.20    4.41   0
   3   4 -15    2.85    3.13   0
   2 -10 -26    1.65    3.13   0
   2  -9 -28    7.31    2.92   0
   3  -8 -21    5.01    3.85   0
   3  -8 -15  133.69    5.15   0
   3  -7 -24  138.00    5.14   0
   3  -6 -26    1.46    3.25   0
   3  -5 -27   29.06    3.42   0
   3  -4  -9    1.53    2.49   0
   3  -3 -28   49.81    3.72   0
   3   1 -10    0.39    2.36   0
   3   2 -11   -1.32    2.43   0
   3   3 -23   64.61    4.41   0
   3   4 -19    1.99    3.52   0
   3   4 -18   53.42    4.08   0
   3   4 -17  101.73    4.50   0
   2 -10 -25    0.87    3.65   0
   2   2 -31   -0.67    2.82   0
   3  -7 -23    3.57    3.83   0
   3  -7 -13   17.03    3.67   0
   3  -6 -25    0.38    3.48   0
   3  -6 -11    4.43    2.88   0
   3  -5 -26  127.75    4.94   0
   3  -5 -10   10.20    2.82   0
   3  -4 -27    8.08    3.30   0
   3  -3 -27   97.14    4.45   0
   3  -2 -27    5.82    3.91   0
   3  -2  -9   33.07    2.81   0
   3  -1 -27  147.56    5.13   0
   3   1 -26    7.75    3.56   0
   3   2 -12   17.04    2.85   0
   3   3 -22   15.61    3.95   0
   2  -9 -27    3.32    3.14   0
   3  -7 -22   45.80    4.34   0
   3  -7 -21    0.09    3.69   0
   3  -7 -15  131.48    5.05   0
   3  -7 -14  385.43    7.03   0
   3  -6 -24    2.37    3.64   0
   3  -6 -12    6.97    3.26   0
   3  -5 -25   71.54    4.38   0
   3  -5 -11   20.16    3.14   0
   3  -4 -26    1.03    3.50   0
   3  -4 -10    4.91    2.73   0
   3   0 -26    3.13    3.70   0
   3   0 -10    3.69    2.43   0
   3   1 -25  253.55    6.33   0
   3   1 -11  186.38    4.42   0
   3   3 -20   25.96    4.00   0
   2 -10 -24    7.54    3.62   0
   2   1 -31  121.18    4.27   0
   2   4 -28    0.00    3.51   0
   3  -7 -20   70.95    4.78   0
   3  -7 -19   19.05    4.15   0
   3  -7 -17    5.17    3.81   0
   3  -7 -16  374.73    7.20   0
   3  -6 -23   -3.26    3.74   0
   3  -6 -13   21.76    3.50   0
   3  -4 -25    1.20    3.44   0
   3  -3 -26   21.09    3.85   0
   3  -3 -10   33.71    2.98   0
   3  -2 -26    3.04    3.60   0
   3  -2 -10    5.10    2.53   0
   3  -1 -26    5.63    3.66   0
   3  -1 -10   -0.73    2.32   0
   3   1 -24    7.06    3.83   0
   3   2 -14   35.22    3.29   0
   3   2 -13    3.07    2.07   0
   2 -10 -23   42.10    4.08   0
   2  -9 -26    0.50    3.38   0
   2  -9 -10  710.82    7.30   0
   2  -8  -8  136.09    3.61   0
   2  -6 -30   -1.08    2.67   0
   2   2 -30   12.21    3.31   0
   3  -6 -22    1.16    3.80   0
   3  -6 -21   19.10    3.93   0
   3  -6 -14  132.30    4.95   0
   3  -5 -24  154.88    5.52   0
   3  -5 -23    4.90    3.75   0
   3  -4 -11    4.68    2.07   0
   3  -3 -25  246.00    6.44   0
   3  -3 -11    2.27    2.69   0
   3  -2 -25    1.59    3.59   0
   3  -1 -25  238.91    6.37   0
   3  -1 -11  186.81    4.51   0
   3   0 -24    3.38    3.69   0
   3   1 -23  157.35    5.60   0
   3   1 -13  854.66    8.74   0
   3   2 -15   34.57    3.49   0
   2 -10 -22    0.88    3.71   0
   2 -10 -14   14.26    4.10   0
   2  -3 -31   73.08    4.03   0
   2  -1 -31  119.57    4.59   0
   2   4 -27   -0.57    3.64   0
   2   5 -11   78.39    3.13   0
   3  -6 -20   16.63    4.01   0
   3  -6 -18    0.48    3.71   0
   3  -6 -16   41.32    4.18   0
   3  -5 -22   23.23    4.17   0
   3  -5 -13  354.37    6.40   0
   3  -4 -24    6.94    3.71   0
   3  -4 -12    2.37    2.91   0
   3  -3 -24  146.86    5.64   0
   3  -3 -12  313.29    5.76   0
   3  -2 -24    4.71    3.69   0
   3  -1 -24    8.15    3.79   0
   3  -1 -12  124.38    4.08   0
   3   0 -12    8.87    2.69   0
   3   1 -22    1.70    3.75   0
   3   1 -14   10.74    3.03   0
   3   2 -19   14.44    3.79   0
   3   2 -18    0.32    3.52   0
   3   2 -17   50.03    4.05   0
   3   2 -16    9.09    3.20   0
   2 -10 -21   78.74    4.70   0
   2 -10 -20   82.03    5.14   0
   2  -9 -25    3.23    3.52   0
   2  -9 -11  231.47    4.94   0
   2  -8 -27    6.45    3.22   0
   2  -8  -9  254.30    4.85   0
   2  -7 -28   22.52    3.84   0
   2  -5 -30   66.58    3.77   0
   2  -2 -31    0.75    2.84   0
   2   2 -29    9.85    3.31   0
   2   3 -28   41.79    4.01   0
   2   5 -24   42.98    4.61   0
   3  -5 -21    0.06    3.88   0
   3  -5 -20    2.90    3.78   0
   3  -5 -16  339.12    6.85   0
   3  -5 -15  329.36    6.67   0
   3  -4 -23    0.34    2.76   0
   3  -4 -22   -0.46    3.82   0
   3  -3 -13  671.90    8.13   0
   3  -2 -23    0.00    3.78   0
   3  -1 -23  150.67    5.66   0
   3  -1 -13  807.84    8.63   0
   3   0 -22   -1.28    3.69   0
   3   0 -14   87.93    3.94   0
   3   1 -20   23.02    3.94   0
   3   1 -16  103.62    4.40   0
   3   1 -15  533.02    7.52   0
   2 -10 -19    0.26    3.73   0
   2 -10 -18    4.28    3.83   0
   2 -10 -17   59.84    4.37   0
   2 -10 -16    0.94    3.52   0
   2  -9 -24   72.53    4.39   0
   2  -8 -26    3.28    3.33   0
   2  -6 -29    4.52    3.03   0
   2   0 -30   19.94    3.48   0
   2   4 -26    7.75    3.64   0
   2   5 -12  689.35    6.43   0
   3  -5 -19   73.65    4.61   0
   3  -5 -18  204.06    6.04   0
   3  -5 -17    8.45    3.73   0
   3  -4 -21    1.70    3.61   0
   3  -4 -15    3.39    3.37   0
   3  -4 -14   22.59    3.44   0
   3  -3 -14   45.40    3.61   0
   3  -2 -22   15.79    4.04   0
   3  -1 -22    1.07    3.71   0
   3  -1 -14   10.77    3.03   0
   3   0 -20   55.13    4.40   0
   3   0 -16   38.56    3.69   0
   3   1 -18   12.52    3.52   0
   2  -9 -23    5.63    3.75   0
   2  -9 -12  356.18    5.89   0
   2  -8 -10   17.94    3.11   0
   2  -7 -27    3.87    3.32   0
   2  -5 -29   14.58    3.32   0
   2  -3 -30   31.84    3.52   0
   2  -2 -30   13.23    3.19   0
   2  -1 -30   12.10    3.36   0
   2   2 -28   18.12    4.11   0
   2   3 -27   -1.35    3.60   0
   2   5 -23  137.59    5.05   0
   3  -4 -19   -0.93    3.54   0
   3  -4 -18   51.40    4.24   0
   3  -4 -17  104.18    4.86   0
   3  -3 -16   90.70    4.44   0
   3  -3 -15  271.41    5.99   0
   3  -2 -19   11.35    3.69   0
   3  -2 -16    9.55    3.30   0
   3  -1 -20   24.94    3.91   0
   3  -1 -19  188.54    5.72   0
   3  -1 -18   14.88    3.61   0
   3  -1 -17  497.92    7.83   0
   3  -1 -16  103.89    4.47   0
   3  -1 -15  512.83    7.56   0
   1  -9 -29    0.55    2.32   0
   1  -9 -29    0.18    1.50   0
   1   2 -32    6.55    3.12   0
   2  -9 -22  223.26    6.08   0
   2  -9 -13   25.44    3.36   0
   2  -8 -25   -1.30    3.49   0
   2   4 -25    5.48    3.83   0
   3  -2 -17   48.65    3.95   0
   1   3 -31    1.66    3.15   0
   2  -9 -21   11.52    4.02   0
   2  -9 -14  227.56    5.41   0
   2  -8 -24    0.22    3.66   0
   2  -8 -11  207.89    4.64   0
   2  -7 -26    0.31    3.54   0
   2  -7  -9    0.60    2.29   0
   2  -6 -27   41.37    3.83   0
   2  -5 -28   35.16    3.72   0
   2  -3 -29   60.75    4.07   0
   2  -2 -29    9.24    3.36   0
   2  -1 -29   90.96    4.44   0
   2   1 -28   -2.54    3.40   0
   2   2 -27    4.26    3.47   0
   2   3 -26   13.78    3.80   0
   2   4 -24   53.59    4.32   0
   2   4 -11  141.30    3.34   0
   2   5 -21   59.20    4.10   0
   1 -10 -26   32.70    3.63   0
   1  -9 -28   18.54    3.27   0
   1   1 -32    0.61    3.11   0
   2  -9 -18  117.12    4.88   0
   2  -9 -17   67.75    4.36   0
   2  -9 -16    2.22    3.53   0
   2  -8 -23   24.52    4.03   0
   2  -7 -25    2.54    3.54   0
   2  -6  -8   63.75    2.75   0
   2   0 -28    6.77    3.46   0
   2   3 -25    2.00    4.19   0
   2   5 -16   17.63    2.95   0
   1  -8 -29   21.98    3.59   0
   1  -6 -31    2.61    3.02   0
   2  -8 -22    3.26    3.80   0
   2  -8 -12   32.92    3.19   0
   2  -6 -26    9.78    3.64   0
   2  -5 -27    2.78    3.56   0
   2  -3 -28   45.14    4.02   0
   2  -2 -28   17.21    3.59   0
   2  -1 -28   -0.48    3.41   0
   2   1 -27   12.53    3.65   0
   2   4 -22   45.16    3.93   0
   2   4 -12  183.10    3.79   0
   1  -9 -27    3.90    3.63   0
   1  -3 -32    8.11    3.12   0
   1   0 -32    2.16    2.87   0
   1   2 -31    0.22    2.93   0
   1   3 -30   -0.19    3.24   0
   2  -8 -21  119.06    5.31   0
   2  -8 -14   87.53    4.38   0
   2  -8 -13   12.08    3.08   0
   2  -7 -24   79.10    4.69   0
   2  -6 -25    3.47    3.52   0
   2  -5  -8  743.46    6.44   0
   2  -4 -27    2.59    3.45   0
   2   3 -24   40.20    4.14   0
   2   4 -13   71.17    3.03   0
   1  -5 -31    1.31    2.67   0
   1  -2 -32    5.73    2.88   0
   1  -1 -32    1.05    2.74   0
   2  -8 -16    1.50    3.25   0
   2  -8 -15   10.18    3.35   0
   2  -7 -23    5.49    3.79   0
   2  -7 -11   82.31    3.32   0
   2  -5 -26    1.20    3.45   0
   2  -3 -27    1.90    3.44   0
   2  -2 -27    1.82    3.52   0
   2  -1 -27   10.89    3.73   0
   2   1 -26   -0.47    3.56   0
   2   3 -11  699.98    6.30   0
   2   4 -19    1.69    3.62   0
   2   4 -14    8.99    2.50   0
   1 -10 -24   95.35    4.59   0
   1  -8 -28    0.76    3.24   0
   1  -7 -29   -0.54    2.93   0
   1  -6 -30    5.49    3.08   0
   1   2 -30   12.92    3.74   0
   1   4 -28   90.48    4.46   0
   2  -6 -24   15.40    3.88   0
   2  -5 -25   -1.92    3.60   0
   2  -5  -9  376.88    4.92   0
   2  -4 -26    2.87    3.53   0
   2  -1 -26    0.11    3.51   0
   2   0 -26    1.06    3.58   0
   2   1 -25   86.10    4.75   0
   2   3 -22   24.86    3.71   0
   2   3 -12  373.77    4.97   0
   2   4 -18    1.30    3.01   0
   2   4 -17    2.54    2.88   0
   2   4 -16    2.77    2.70   0
   0 -10 -28    0.19    2.74   0
   1 -10 -23   24.92    3.90   0
   1  -3 -31    1.10    2.88   0
   1  -1 -31    0.05    2.92   0
   1   3 -29   14.02    3.62   0
   2  -7 -20  233.00    6.11   0
   2  -6 -23   37.97    4.26   0
   2  -6 -11  175.24    4.07   0
   2  -5 -24   43.72    4.29   0
   2  -4 -25    7.16    3.54   0
   2   2 -23   50.66    4.27   0
   2   3 -21  453.36    7.33   0
   2   3 -13  846.40    7.35   0
   1 -10 -22    0.05    3.61   0
   1  -9 -25   27.89    3.90   0
   1  -8 -27  155.97    5.10   0
   1  -7 -28   37.33    4.13   0
   1  -6 -29   29.69    3.96   0
   1  -5 -30    4.34    3.04   0
   1  -2 -31    4.26    2.93   0
   1   4 -27  184.40    5.70   0
   2  -7 -19   12.78    3.72   0
   2  -7 -17   -1.84    3.33   0
   2  -7 -16  141.28    4.69   0
   2  -7 -15    5.33    3.08   0
   2  -6 -22   10.50    3.82   0
   2  -6 -12  201.12    4.38   0
   2  -5 -23  144.22    5.29   0
   2  -5 -10  797.36    7.07   0
   2  -4 -24   55.02    4.39   0
   2  -4  -9  445.70    5.20   0
   2  -3 -25    6.03    3.79   0
   2  -2 -25   25.51    4.03   0
   2  -1 -25   81.65    4.70   0
   2   1 -24   -1.01    3.48   0
   2   1 -10  148.97    3.31   0
   2   2 -22  152.42    5.12   0
   2   3 -20  283.74    5.98   0
   2   3 -19  288.71    5.89   0
   2   3 -14  187.44    4.15   0
   1 -10 -21    7.58    4.31   0
   1   0 -30   25.27    3.48   0
   1   2 -29   26.48    3.75   0
   1   3 -28   15.43    3.71   0
   1   5 -25   32.20    3.97   0
   2  -6 -21  198.77    5.85   0
   2  -6 -20    4.85    3.60   0
   2  -6 -13  127.42    3.96   0
   2  -5 -11   80.27    3.10   0
   2  -3  -9 1913.26    9.98   0
   2  -2 -24    5.60    3.58   0
   2  -1 -24    1.32    3.47   0
   2   1 -23  137.71    5.25   0
   2   2 -21    1.83    3.29   0
   2   2 -12  234.30    4.13   0
   2   3 -18  130.13    4.38   0
   0 -10 -27   50.60    3.63   0
   0   2 -32  116.52    4.13   0
   1 -10 -20   -1.27    3.64   0
   1  -9 -24   -0.17    3.61   0
   1  -8 -26    5.42    3.52   0
   1  -7 -27    3.45    3.93   0
   1  -5 -29    7.62    3.27   0
   1  -3 -30   -1.43    3.18   0
   1  -2 -30   16.56    3.49   0
   1  -1 -30   14.19    3.40   0
   2  -6 -19   86.81    4.54   0
   2  -6 -18    8.99    3.45   0
   2  -6 -17   20.82    3.42   0
   2  -6 -16  243.57    5.45   0
   2  -6 -15   11.32    3.03   0
   2  -6 -14   18.32    2.99   0
   2  -5 -21   65.58    4.47   0
   2  -5 -12  709.25    7.15   0
   2  -4 -23   92.75    4.84   0
   2  -4 -10    0.16    1.45   0
   2   0 -10 1079.98    7.58   0
   2   1 -22   32.05    3.95   0
   2   1 -11 1334.80    8.58   0
   2   2 -13    3.66    2.22   0
   1 -10 -18    1.53    4.08   0
   1  -9 -23    1.34    3.72   0
   1  -8 -25  172.90    5.45   0
   1  -6 -28    9.10    3.33   0
   1   1 -29   42.93    3.94   0
   1   4 -26   96.78    4.64   0
   2  -5 -20  329.77    6.95   0
   2  -5 -13  189.97    4.39   0
   2  -4 -22   47.06    4.19   0
   2  -4 -21   59.05    4.19   0
   2  -4 -11  143.99    3.59   0
   2  -3 -10  978.23    7.36   0
   2  -2 -10  883.03    7.09   0
   2  -1 -10  158.73    3.46   0
   2   1 -12   -0.56    2.05   0
   2   2 -17    4.35    2.75   0
   2   2 -16    0.43    2.55   0
   2   2 -15   53.05    3.11   0
   0 -10 -26   43.26    3.84   0
   0  -6 -31  103.65    4.31   0
   1  -9 -22    3.45    3.74   0
   1  -5 -28  124.81    5.02   0
   1  -3 -29   19.81    3.69   0
   1  -2 -29   29.78    3.66   0
   1  -1 -29   46.58    4.04   0
   1   5 -23    3.72    4.08   0
   2  -5 -19   88.54    3.85   0
   2  -5 -18  208.52    5.51   0
   2  -5 -17   79.09    4.11   0
   2  -5 -15  109.19    4.02   0
   2  -5 -14  139.45    4.15   0
   2  -4 -20   60.19    4.19   0
   2  -4 -12  203.41    4.23   0
   2  -3 -11  724.22    6.78   0
   2  -2 -22  156.85    5.39   0
   2  -2 -21    3.13    3.47   0
   2  -2 -11   23.25    2.34   0
   2  -1 -21  707.48    9.23   0
   2  -1 -11 1373.01    8.90   0
   2   0 -12   38.05    2.47   0
   2   1 -19  550.37    7.71   0
   2   1 -13  697.85    6.83   0
   0  -8 -29   36.75    3.44   0
   0   0 -32   79.33    3.88   0
   1  -9 -21    2.22    3.61   0
   1  -8 -24    1.13    3.69   0
   1  -6 -27  170.27    5.46   0
   1  -4 -28   87.75    4.61   0
   1   1 -28    4.90    3.53   0
   1   4 -25  161.25    5.32   0
   2  -4 -19    2.19    3.28   0
   2  -4 -18    2.87    3.22   0
   2  -4 -14    9.88    2.64   0
   2  -4 -13   67.96    3.17   0
   2  -3 -12  381.82    5.32   0
   2  -2 -20  116.66    4.79   0
   2  -1 -20  214.16    5.67   0
   2  -1 -12    0.22    2.07   0
   2   0 -20    5.08    2.46   0
   2   1 -15  134.46    3.88   0
   2  -4 -16    2.71    2.22   0
   2  -3 -19  272.68    5.67   0
  -3  -6 -10    7.17    2.27   0
  -2 -10 -11  145.34    4.39   0
  -2  -2  -3   65.18    1.37   0
  -1  -7  -3   15.87    1.39   0
  -1   4  -3 7150.63    9.38   0
   0  -8  -3 1734.60    8.04   0
   1 -12 -11   22.94    3.38   0
   2  -7  -4 1113.43    5.22   0
   2  -4  -2    9.97    0.61   0
  -3  -7 -12  189.42    4.45   0
  -2 -10 -12   16.39    3.14   0
  -2  -9  -9   59.42    3.00   0
  -1 -11 -10    1.69    2.62   0
  -1  -3  -1  604.38    3.18   0
   0 -12 -11  355.87    6.24   0
  -3  -7 -13   20.75    3.06   0
  -3  -6 -11    1.40    2.36   0
  -3  -3  -8  260.01    3.26   0
  -2  -8  -8  135.58    3.44   0
  -2  -4  -4    1.70    1.59   0
   1 -11  -9   27.61    2.80   0
   2  -9  -7   24.31    1.94   0
  -3  -7 -14  357.93    5.94   0
  -3  -5 -10    9.22    2.08   0
  -3  -4  -9    0.19    1.65   0
  -3  -2  -8    0.67    1.19   0
  -1  -2  -1  231.15    1.78   0
   0  -2   0 2732.97    4.40   0
   1  -6  -2  195.18    2.30   0
  -3  -6 -12    8.09    2.58   0
  -2  -9 -11  231.02    4.77   0
  -2  -6  -6    0.10    1.59   0
  -1 -11 -12   36.67    3.20   0
  -1  -1  -1 4148.21    5.74   0
   0  -8  -4   14.51    1.73   0
   1 -11 -10    3.84    2.61   0
   1  -7  -3   16.87    1.48   0
  -3  -6 -13   20.66    2.87   0
  -3  -5 -11   15.13    2.29   0
  -3  -4 -10    5.61    2.10   0
  -3  -3  -9  106.81    2.42   0
  -2  -9 -12  344.26    5.65   0
  -2  -3  -4  120.57    2.02   0
  -1  -4  -2  752.20    3.99   0
   2  -8  -6  189.45    2.78   0
  -3  -6 -14  116.67    3.93   0
  -3  -5 -12  236.92    4.44   0
  -2  -9 -13   27.63    3.05   0
   1 -11 -11   17.98    2.74   0
   1  -4  -1   35.56    0.91   0
  -3  -6 -15    6.29    2.93   0
  -3  -4 -11    5.29    2.21   0
  -3  -2  -9   31.11    1.59   0
  -2  -4  -5   48.58    1.77   0
  -2  -2  -4  494.19    3.18   0
  -1  -5  -3  642.41    4.16   0
   0  -8  -5    4.25    1.53   0
   0  -4  -1 9932.15   12.12   0
   1 -11 -12   42.29    3.33   0
   2  -5  -3  472.90    2.58   0
  -3  -5 -13  336.16    4.93   0
  -3  -3 -10   35.62    1.91   0
  -3  -1  -9  862.51    4.85   0
  -2  -8 -11  208.00    4.26   0
  -2  -7  -9   -1.14    1.85   0
  -2  -5  -6    0.30    1.47   0
  -1  -8  -7  229.05    3.65   0
  -3  -5 -14  710.97    6.94   0
  -3  -4 -12    4.33    2.33   0
  -2  -8 -12   29.06    2.70   0
  -2   4  -5   40.36    0.73   0
  -1  -3  -2 4417.18    8.31   0
   0 -10 -10  228.82    4.36   0
   1  -7  -4 3141.14    9.39   0
   1  -5  -2  348.88    2.54   0
   2  -8  -7  544.91    4.47   0
  -3  -3 -11    1.34    1.64   0
  -3  -2 -10    3.41    1.36   0
  -2  -8 -13    9.50    2.53   0
  -2  -7 -10 1335.73    8.60   0
   0  -6  -3 1711.20    6.56   0
   1  -6  -3  706.05    4.04   0
  -3  -4 -13   -1.42    2.03   0
  -2  -8 -14   84.59    3.50   0
  -2  -4  -6   69.93    1.94   0
  -2   0  -4    1.52    0.59   0
  -2   1  -4   78.11    0.80   0
  -1  -8  -8   63.77    2.45   0
   0 -10 -11  432.68    5.77   0
   1 -10 -11    2.72    2.36   0
  -3  -4 -14   20.92    2.46   0
  -2  -7 -11   89.26    2.96   0
  -2  -6  -9  423.87    4.63   0
  -1  -5  -4  147.12    2.26   0
  -1  -4  -3 7145.97   11.99   0
   0 -10 -12  461.60    6.05   0
   2  -8  -8  132.66    2.77   0
   2  -7  -6  420.76    3.50   0
   2  -1  -1 4082.60    4.36   0
  -3  -2 -11    0.67    1.45   0
  -2  -7 -12  757.67    6.93   0
  -1  -9 -12    2.22    2.27   0
  -1  -7  -7    8.45    1.67   0
   0   2   0 3290.77    4.76   0
   1 -10 -12    0.04    2.40   0
  -2  -7 -13    3.50    2.25   0
  -2  -6 -10   16.78    1.90   0
  -2  -5  -8  716.65    5.33   0
  -2  -2  -5  115.80    1.77   0
  -1  -9 -13   11.49    2.49   0
  -1  -2  -2  230.73    1.76   0
   0 -10 -14   75.78    3.53   0
   0  -8  -7  464.83    4.55   0
   1 -10 -13  612.68    6.86   0
   2  -3  -2  851.30    1.98   0
  -3  -2 -12   15.56    1.75   0
  -2  -4  -7   57.51    1.87   0
  -2  -3  -6   26.14    1.43   0
  -1  -8 -10   18.42    2.03   0
   0 -10 -15   43.63    3.37   0
   0  -6  -4    2.98    0.91   0
   0  -4  -2 9817.19   12.06   0
   2  -8  -9  264.52    3.67   0
  -2  -7 -15    7.79    2.59   0
  -2  -6 -11  176.31    3.42   0
  -2  -5  -9  365.56    4.05   0
  -1  -8 -11  108.59    3.01   0
  -1  -7  -8  157.58    2.96   0
   0  -8  -8    7.22    1.72   0
   2  -7  -7  127.02    2.39   0
  -1  -5  -5   55.78    1.71   0
  -1  -4  -4 4711.29    9.92   0
  -1  -3  -3 3386.97    7.38   0
   1  -8  -8   55.52    2.17   0
   1  -5  -3  635.25    3.42   0
   2  -5  -4   53.81    1.23   0
  -2  -4  -8  535.93    4.35   0
  -1  -8 -12    0.91    1.41   0
  -1  -7  -9    1.35    1.63   0
  -1  -6  -7 1017.13    6.05   0
   0  -8  -9 2003.56    9.58   0
   1  -4  -2  648.19    2.84   0
   2  -8 -10   18.70    1.91   0
  -2  -6 -14   14.61    2.37   0
  -2  -3  -7  231.76    2.76   0
  -2  -2  -6   30.22    1.33   0
  -1  -8 -14   11.04    2.29   0
  -1  -8 -13  141.02    3.56   0
   0  -6  -5    1.95    1.32   0
  -2  -6 -15   15.26    2.50   0
  -2  -5 -11   80.55    2.51   0
  -1  -8 -16    0.89    2.46   0
  -1  -8 -15  668.95    7.17   0
  -1  -7 -10  101.37    2.69   0
  -1  -5  -6  484.04    3.91   0
  -1  -1  -2  357.93    1.77   0
   0  -8 -10    5.73    1.81   0
   1  -9 -13   16.49    2.58   0
  -2  -4  -9  435.66    4.12   0
  -1  -7 -11    7.47    1.84   0
   0  -2  -1 1122.43    2.86   0
   1  -9 -14  117.71    3.73   0
   1  -7  -7    8.73    1.51   0
   1  -6  -5 2341.91    7.71   0
  -2  -5 -12  719.87    6.11   0
  -2  -3  -8  881.97    5.21   0
   0  -8 -11 1794.26    9.77   0
   1  -8 -10   18.52    2.00   0
   2  -8 -12   27.88    2.34   0
   2   1   0  770.35    3.15   0
  -2  -5 -13  195.42    3.68   0
  -1  -3  -4  367.23    2.69   0
  -1  -2  -3  410.90    2.41   0
   0  -8 -12   19.61    2.22   0
   0  -6  -6   25.00    1.32   0
   0  -4  -3  355.46    2.55   0
   1  -8 -11  107.37    3.03   0
   2  -8 -13    9.70    2.36   0
   2  -7  -9   -0.67    1.44   0
  -2  -5 -14  132.21    3.34   0
  -1  -7 -13   -1.00    1.39   0
  -1  -5  -7   84.61    2.18   0
  -1   3  -1  508.22    1.85   0
   0  -8 -13  540.33    6.10   0
   1  -7  -8  160.10    2.87   0
   1  -5  -4  135.94    1.90   0
   1   2   1  191.11    1.57   0
   2  -5  -5    2.15    1.01   0
  -2  -5 -17   76.91    3.50   0
  -2  -4 -11  143.77    2.91   0
  -2  -3  -9 1898.90    8.01   0
  -1  -7 -17    1.21    2.54   0
  -1  -7 -15    1.24    2.36   0
   0  -8 -15  148.12    4.08   0
   0  -8 -14   15.43    2.50   0
   1  -8 -12   -1.04    2.05   0
   1  -6  -6  127.35    2.37   0
   2  -8 -16    2.47    2.97   0
   2  -6  -7  150.25    2.32   0
  -2  -4 -12  201.54    3.55   0
  -1  -5  -8   96.03    2.39   0
  -1  -4  -6 3013.38    8.95   0
   0  -8 -16    0.89    2.57   0
   0  -6  -7 1307.26    6.68   0
   1  -7  -9   -0.64    1.57   0
  -1  -6 -11    4.06    1.29   0
   1  -8 -14   13.79    2.66   0
   1  -4  -3 6926.22   10.25   0
   1   1   1 4265.85    5.89   0
   3  -5  23    3.94    4.79   0
   3  -2   3    2.19    2.06   0
   3  -1   2    2.01    1.85   0
   4  -4  15   21.71    4.11   0
   4  -4  16   11.32    3.96   0
   4  -4  17    1.10    3.93   0
   4  -4  18    5.53    4.64   0
   4   2   3    2.03    2.52   0
   5   0  14  129.20    5.69   0
   5   0  16  216.06    6.64   0
   5   0  18   70.29    4.99   0
   5   1  11   14.06    4.08   0
   5   2  10   13.02    3.94   0
   5   4   8   -1.10    4.30   0
   5   5   8    1.53    4.30   0
   1  -3   2 4165.47    9.27   0
   2  -6   9  405.81    5.07   0
   2  -5   6    0.89    1.81   0
   2  -4   4    0.41    1.71   0
   2  -2   1   16.21    1.48   0
   2  -1   0  888.11    5.13   0
   3  -6  14  116.26    4.53   0
   3  -6  16   39.92    4.02   0
   3  -6  17   -1.43    3.58   0
   3  -6  18    1.14    3.90   0
   3  -5   9   92.04    3.67   0
   3  -4   6    3.53    2.28   0
   4  -4  13   13.14    3.79   0
   4  -4  14    0.26    3.65   0
   4  -1   5    3.43    2.75   0
   4   4   2  108.83    3.52   0
   5   0  12   11.05    4.06   0
   5   1  10   -3.31    3.79   0
   5   3   8    0.61    3.78   0
   1  -6   8    8.42    1.88   0
   2  -7  14  515.75    6.73   0
   2  -7  15    6.67    2.90   0
   2  -7  17    1.55    3.15   0
   2   2  -2   67.36    1.44   0
   3  -6  13   18.74    3.39   0
   3  -6  19    2.21    3.88   0
   3  -6  20   15.49    4.69   0
   3  -5   8  503.55    6.53   0
   4  -4  12  191.87    5.66   0
   4  -3   8  107.49    4.51   0
   4  -2   6    9.05    3.05   0
   5  -1  14    3.71    4.17   0
   5  -1  16   -0.31    4.01   0
   5   1   9   29.33    4.11   0
   5   5   7    1.93    3.81   0
   2  -6   8   60.86    2.60   0
   3  -6  12    5.93    3.04   0
   3  -2   2  322.47    4.50   0
   3  -1   1  377.59    4.64   0
   4  -4  10   45.44    3.98   0
   4  -4  22   71.93    5.07   0
   4   2   2  539.72    6.36   0
   5  -1  12    2.99    3.95   0
   5  -1  13  112.41    5.50   0
   5  -1  19   -0.45    3.88   0
   5   0  10   17.39    3.98   0
   5   3   7    2.19    3.76   0
   2  -7  12  751.14    7.31   0
   2  -5   5    2.85    1.80   0
   2  -4   3  309.66    3.83   0
   3  -5   7  226.09    4.66   0
   3  -4   5   -1.60    1.60   0
   3  -3   3  893.97    7.35   0
   3   2  -1  448.62    4.37   0
   4  -5  15    1.31    3.76   0
   4  -5  16   51.30    4.69   0
   4  -5  17    1.84    4.03   0
   4  -5  18   15.22    4.84   0
   4  -3   7  281.84    5.90   0
   4  -2   5    2.57    2.82   0
   4  -1   4    7.06    2.69   0
   4   4   1   73.99    3.43   0
   5  -1  11   12.42    3.98   0
   5   1   8   -2.45    3.54   0
   1  -7  11    8.10    2.11   0
   2  -7  11   86.49    3.29   0
   3  -6  10    3.90    2.81   0
   4  -5  13  158.74    5.54   0
   4   3   1  481.90    5.80   0
   5  -2  13    7.44    4.08   0
   5  -2  15   11.50    3.11   0
   5  -2  17   25.19    4.29   0
   5  -2  19    0.11    3.94   0
   5  -1  10   -1.46    3.74   0
   5   0   8  672.68    9.30   0
   5   3   6   16.03    3.83   0
   2  -2   0 1521.75    6.90   0
   3  -7  15  132.04    5.36   0
   3  -7  17    2.73    4.32   0
   3  -6   9    1.51    2.71   0
   4  -5  11   21.70    3.85   0
   4  -1   3  694.36    7.61   0
   4   0   2  431.07    5.97   0
   4   2   1  237.15    4.50   0
   5  -2  11  117.36    5.21   0
   5  -2  12  103.27    5.25   0
   5  -1   9   28.69    4.15   0
   5   4   5  302.58    6.64   0
   1  -7  10   98.47    2.79   0
   2  -5   4   60.32    2.37   0
   2  -1  -1 4462.18   11.04   0
   3  -7  14  375.31    6.79   0
   3  -7  18  379.27    7.15   0
   3  -7  19   14.59    4.62   0
   3  -6   8    3.29    2.64   0
   3  -3   2  521.55    5.69   0
   4  -5  10  427.32    7.46   0
   5  -3  15   24.02    4.38   0
   5  -3  16    0.51    4.07   0
   5  -2  10   12.13    3.95   0
   5  -1   8    2.19    3.72   0
   5   3   5   58.15    4.24   0
   1  -3   1  554.67    3.47   0
   2  -4   2   10.84    1.80   0
   3  -7  12  193.19    5.19   0
   3  -5   5  496.69    6.24   0
   4  -6  15   -3.67    3.64   0
   4  -5   9   44.31    4.00   0
   5  -2   9  151.89    5.61   0
   5   0   6  243.78    6.06   0
   5   2   5   63.05    4.40   0
   1  -7   9    0.53    1.90   0
   1  -6   6  127.10    2.50   0
   3  -6   7   11.33    2.60   0
   4  -6  13   81.33    4.77   0
   4  -6  19   54.58    4.71   0
   4  -4   6   27.53    3.44   0
   4  -2   3    1.93    2.72   0
   4   4   0  287.77    4.53   0
   5  -3  11    2.67    3.77   0
   5  -1   7   -1.98    3.60   0
   5   1   5   73.66    4.40   0
   5   3   4   26.93    3.82   0
   1  -4   2  699.49    4.15   0
   2  -8  13    8.52    2.83   0
   2  -8  14   80.86    3.68   0
   2  -6   5  385.75    4.64   0
   2  -5   3  493.07    4.85   0
   2   0  -2  294.40    2.82   0
   3   2  -2  341.08    3.78   0
   4  -6  11   57.94    4.33   0
   4  -6  12    0.94    3.58   0
   4  -5   8  374.15    6.85   0
   4  -3   4    5.94    2.21   0
   4   2   0  225.41    4.30   0
   5  -3  10    3.16    3.87   0
   5  -1   6    0.45    3.57   0
   5   2   4  524.12    7.59   0
   3  -7   9   40.36    3.43   0
   3   1  -2    5.58    1.63   0
   4  -6  10   38.25    4.11   0
   4  -4   5   71.14    3.89   0
   4  -2   2  470.75    6.44   0
   4   1   0  144.47    3.83   0
   5  -4  13   15.36    4.27   0
   5  -3   9   72.42    4.70   0
   5  -2   7   15.13    4.01   0
   5   1   4    3.78    3.56   0
   1  -7   8  139.05    2.74   0
   2  -8  11  201.60    4.40   0
   2  -7   7  119.89    3.29   0
   2  -4   1  477.64    4.48   0
   2  -3   0  975.15    5.74   0
   2  -2  -1    3.89    1.25   0
   3  -8  14   35.06    4.39   0
   3  -8  17    0.32    4.29   0
   3  -7   8  288.59    5.45   0
   4  -6   9  253.98    6.19   0
   4  -3   3   56.94    3.52   0
   4  -1   1  551.79    6.69   0
   5  -3   8    2.14    3.72   0
   5  -1   5   66.59    4.35   0
   5   3   3   28.72    3.69   0
   2  -8  10   16.55    2.62   0
   2  -6   4  268.12    4.00   0
   3  -8  13    8.66    3.52   0
   3  -8  18   11.68    4.06   0
   3  -6   5    6.94    2.52   0
   3  -5   3  514.80    6.09   0
   4  -7  14   75.48    4.95   0
   4  -7  17    2.83    4.21   0
   4  -5   6   10.32    3.34   0
   5  -4  10   42.47    4.41   0
   2  -7   6  474.67    5.39   0
   2  -5   2 1813.77    8.81   0
   2  -1  -2   17.30    1.02   0
   3  -8  12    4.61    3.28   0
   3   0  -2  220.23    3.41   0
   4  -7  12  152.43    5.52   0
   4  -7  13    9.54    3.79   0
   4  -7  18   47.74    4.60   0
   4  -7  19    2.06    4.22   0
   4  -6   8    5.63    3.48   0
   4  -3   2  343.40    5.86   0
   4  -2   1  238.29    4.93   0
   4   2  -1  233.53    4.27   0
   4   3  -1  447.75    5.34   0
   5  -5  13   30.61    4.55   0
   5  -5  14   18.66    4.31   0
   5  -5  15    1.94    4.09   0
   5  -5  16   10.74    4.23   0
   5  -4   9   46.79    4.49   0
   5  -3   7   -1.45    2.57   0
   5  -2   5   61.14    4.46   0
   5  -1   4    3.78    3.52   0
   6   1  11   29.99    4.59   0
   1  -7   7    9.01    1.57   0
   3  -6   4   79.59    3.33   0
   3  -4   1  172.93    3.72   0
   3  -2  -1  477.10    5.10   0
   3   3  -3  896.77    5.49   0
   4  -7  11   -2.75    3.62   0
   4  -6   7  204.33    5.57   0
   4   1  -1  534.83    6.11   0
   5  -5  11    0.42    3.96   0
   5  -5  12   19.99    4.20   0
   5  -4   8    4.83    3.81   0
   5  -3   6   14.75    3.91   0
   5   2   2  583.37    7.75   0
   5   3   2    7.15    3.37   0
   6   1  10   56.00    4.98   0
   6   2   9    2.19    3.98   0
   2  -7   5  273.92    4.30   0
   2  -6   3   13.65    2.03   0
   2  -3  -1 1396.30    6.88   0
   3  -7   6 1457.31   10.75   0
   3  -1  -2    4.98    1.85   0
   3   2  -3    3.32    1.47   0
   4  -5   4   15.57    3.31   0
   5  -5  10   27.78    4.43   0
   5  -4   7  190.70    5.98   0
   5   1   2    1.87    3.39   0
   6   0  10  127.23    5.61   0
   1  -6   4  450.75    3.93   0
   4  -7   9   20.34    3.90   0
   4  -4   2  104.75    4.05   0
   4  -3   1  489.21    6.67   0
   5  -6  14   13.77    4.12   0
   5   0   2   42.38    3.93   0
   6   1   8    6.10    4.17   0
   1  -7   6  269.55    3.37   0
   2  -9  12  354.18    5.99   0
   2  -9  13   21.43    3.31   0
   2  -5   1  432.93    4.40   0
   2  -2  -2   62.28    1.58   0
   3  -9  15   46.61    4.65   0
   3  -7   5    1.77    2.74   0
   3  -3  -1  208.98    3.78   0
   4  -8  15    3.89    4.18   0
   4  -8  16    0.15    4.20   0
   4  -8  17    8.00    4.33   0
   4  -7   8  481.71    7.93   0
   4  -6   5   -1.63    3.19   0
   4  -5   3   91.16    4.06   0
   4   2  -2  542.82    6.05   0
   4   3  -2  361.34    5.00   0
   5  -5   8   -2.25    3.90   0
   5  -4   6  573.83    8.95   0
   5   2   1  162.46    4.95   0
   6   2   7   18.46    4.31   0
   2  -7   4 1110.57    7.92   0
   2  -6   2  607.33    5.64   0
   3  -9  12  162.66    5.52   0
   3  -9  13    0.25    3.59   0
   3  -9  16  339.20    6.85   0
   4  -8  11  257.22    6.47   0
   4  -8  12   11.55    4.05   0
   4  -7   7   -4.34    3.55   0
   4   1  -2   78.82    3.14   0
   5  -6  10   11.03    3.97   0
   5  -5   7    0.90    3.75   0
   5  -4   5  292.13    6.89   0
   6   1   7   12.13    4.24   0
   2  -1  -3  466.18    3.63   0
   3  -9  11    1.32    3.42   0
   3  -7   4  909.74    8.48   0
   3  -6   2    2.10    2.35   0
   4  -8  10   -3.76    3.77   0
   4  -6   4  404.67    6.98   0
   4  -4   1   79.27    3.83   0
   4  -3   0   15.21    2.86   0
   4   0  -2  425.89    5.67   0
   6  -2   9    5.41    4.09   0
   6   1   6    7.09    4.02   0
   6   2   6   14.71    4.40   0
   1  -8   8   56.40    2.40   0
   1  -7   5  320.21    3.71   0
   1  -6   3  692.36    4.72   0
   3  -9  10   26.53    3.66   0
   3  -8   6   24.29    3.18   0
   3  -4  -1  151.41    3.51   0
   3  -1  -3 1262.89    7.58   0
   4  -8   9  149.34    5.43   0
   4  -7   6   -0.16    2.42   0
   5  -7  14   16.13    4.09   0
   5  -7  15    2.20    3.91   0
   5  -6   8    0.37    3.81   0
   5  -2   2  584.42    8.35   0
   6  -2   8   81.21    5.00   0
   6  -1   7   13.99    4.39   0
   6   0   6    0.39    4.14   0
   2  -5   0 2174.99    9.63   0
   2  -3  -2  859.48    5.43   0
   3  -7   3  187.45    4.49   0
   3   2  -4   17.91    1.81   0
   4  -7   5    4.04    3.37   0
   5  -7  11    2.46    3.90   0
   5  -7  13   13.00    4.10   0
   5  -5   5   -2.89    3.67   0
   6  -3   9    3.36    3.85   0
   6  -1   6    9.06    4.71   0
   6   1   5   25.02    4.40   0
   1  -3  -1  578.02    3.55   0
   2  -6   1  250.19    3.94   0
   2  -2  -3   55.83    1.77   0
   2   1  -4   77.26    1.54   0
   3  -8   5    2.95    2.82   0
   3  -6   1   -0.13    2.28   0
   3  -2  -3    4.00    1.85   0
   3   1  -4   22.89    1.72   0
   3   3  -4  465.45    3.99   0
   4  -9  13   37.44    4.59   0
   4  -9  14   11.75    4.26   0
   4  -9  15   47.93    4.74   0
   4  -9  16    2.41    4.15   0
   4  -3  -1  494.88    6.64   0
   4   2  -3    3.56    2.65   0
   5  -7  10   17.54    4.34   0
   5  -4   3  153.07    5.48   0
   5  -3   2    7.87    3.56   0
   5  -2   1  174.64    5.35   0
   6  -3   8   10.88    4.00   0
   3   0  -4  162.95    3.00   0
   4  -9  12  228.68    6.41   0
   4  -7   4  239.22    5.90   0
   4  -2  -2  529.03    6.60   0
   4   1  -3  694.21    6.68   0
   5  -7   9    9.88    4.16   0
   5  -5   4   39.88    4.25   0
   6  -1   5   25.33    4.40   0
   6   1   4    4.36    4.23   0
   1  -7   4 2967.51   10.12   0
   2  -9   7   24.09    2.87   0
   2  -8   4  206.36    4.15   0
   2   0  -4    3.70    1.04   0
   3 -10  13    0.76    3.81   0
   3 -10  14    5.11    3.97   0
   3  -8   4    0.55    2.75   0
   3  -7   2  544.12    6.65   0
   3  -5  -1   -0.38    2.08   0
   3  -4  -2    9.12    2.10   0
   4  -9  10  159.42    5.76   0
   4  -8   6    4.42    3.64   0
   5  -7   8    4.72    4.11   0
   5  -4   2   18.38    3.93   0
   5  -3   1   15.16    3.63   0
   5   1  -1   50.01    3.88   0
   5   2  -1  152.16    4.72   0
   6  -3   7    3.40    3.89   0
   6   0   4    3.24    4.09   0
   1  -6   2  204.93    2.83   0
   2  -6   0  181.12    3.48   0
   2  -5  -1  479.25    4.71   0
   2  -4  -2    8.69    1.80   0
   3 -10  11    1.41    3.64   0
   3 -10  12   35.89    4.17   0
   3  -9   6 1126.73   10.19   0
   3  -3  -3  970.18    7.25   0
   4  -9   9    7.98    3.98   0
   4  -8   5    8.29    3.65   0
   4  -7   3    1.37    3.29   0
   4  -6   1  307.54    6.07   0
   5  -8  11   13.68    4.12   0
   5  -7   7    3.38    4.01   0
   5  -5   3  145.46    5.38   0
   6  -4   8    8.28    3.94   0
   6  -3   6    1.16    4.09   0
   6  -1   4    1.65    4.18   0
   2  -9   6   88.91    3.40   0
   2  -3  -3 1737.66    7.77   0
   3 -10  10    6.12    3.57   0
   3  -8   3  102.16    3.89   0
   3  -7   1   31.37    2.90   0
   4  -9   8  312.31    6.89   0
   5  -8  10   -0.79    4.08   0
   5  -7   6   17.70    4.22   0
   5  -4   1   31.51    4.07   0
   6  -3   5    8.18    4.03   0
   6  -2   4   15.66    4.32   0
   2 -10  10    1.89    2.95   0
   3 -10   9    4.83    3.50   0
   3  -9   5  338.17    6.32   0
   3  -5  -2  121.59    3.39   0
   3  -2  -4   20.00    2.07   0
   4  -9   7   -6.12    3.83   0
   4  -8   4  101.56    4.67   0
   4  -7   2   58.92    4.01   0
   4   1  -4    8.43    2.38   0
   4   2  -4  120.60    3.59   0
   5  -8   9    3.55    4.06   0
   6  -5   8   22.16    4.27   0
   6  -4   6   10.91    4.23   0
   6  -1   3   54.09    4.80   0
   1  -8   5 5459.39   14.48   0
   2 -10   9   94.35    3.80   0
   2  -9   5   21.86    2.72   0
   2  -2  -4  413.13    3.73   0
   3  -8   2   26.02    3.00   0
   3   1  -5 2343.75    9.23   0
   3   2  -5   68.10    2.15   0
   4 -10  11   18.24    4.15   0
   4 -10  12    3.87    4.14   0
   4 -10  13   45.02    4.69   0
   4 -10  14    7.26    4.21   0
   4  -9   6   99.39    4.88   0
   4   0  -4   91.44    3.32   0
   5  -8   8   -0.42    4.10   0
   5  -6   3  270.56    6.73   0
   5   0  -2   39.94    3.75   0
   5   1  -2   -1.72    3.29   0
   6  -4   5   19.60    4.77   0
   6  -2   3    2.41    4.11   0
   6   0   2  160.28    5.65   0
   1  -6   1    1.25    1.37   0
   2 -10   8   68.92    3.92   0
   2  -8   2    5.32    2.21   0
   2  -6  -1  240.54    3.85   0
   2  -5  -2 1834.95    8.82   0
   2  -4  -3  287.43    3.53   0
   3 -10   7  159.00    5.03   0
   3  -3  -4  484.55    5.29   0
   4 -10  10   58.96    4.72   0
   4  -8   3  152.70    5.19   0
   5  -5   1    4.43    3.78   0
   5  -3  -1   15.11    3.70   0
   5  -1  -2    1.95    3.42   0
   6  -1   2    9.03    4.18   0
   2  -7   0  994.01    7.44   0
   3  -8   1   16.75    2.80   0
   4  -9   5    2.87    3.53   0
   4  -6  -1  313.68    6.08   0
   4  -2  -4  117.49    3.86   0
   5  -9  10    7.76    3.99   0
   5  -9  11    3.48    4.12   0
   5  -6   2   18.15    3.15   0
   6  -5   6    1.43    3.83   0
   6  -4   4    2.54    4.10   0
   6  -2   2  147.34    5.72   0
   1  -7   2  380.33    4.06   0
   2 -10   7    5.42    2.78   0
   2  -3  -4   97.74    2.15   0
   2   1  -5  145.48    2.04   0
   3  -5  -3  515.40    5.95   0
   3  -2  -5   67.31    2.54   0
   4 -10   8   15.86    3.99   0
   4  -9   4  211.26    5.99   0
   4  -8   2    4.85    3.34   0
   4  -4  -3  180.89    4.69   0
   5  -9   9    4.43    4.15   0
   5  -7   3   38.94    4.38   0
   5  -4  -1   30.33    4.00   0
   6  -5   5   -2.03    3.98   0
   6  -1   1    5.68    4.61   0
   1  -9   7   14.55    1.83   0
   2  -8   1  460.04    5.56   0
   2  -1  -5  142.33    2.30   0
   3 -11  10    8.49    3.97   0
   3 -11  11   69.72    4.66   0
   3 -10   5    6.70    3.40   0
   3  -7  -1   21.50    2.09   0
   3  -4  -4   96.29    3.02   0
   4 -10   7   64.97    4.73   0
   4  -3  -4   10.80    2.85   0
   4   1  -5    1.23    2.26   0
   5  -9   8   10.57    4.20   0
   5  -6   1   19.85    3.12   0
   5  -3  -2    8.22    3.58   0
   5  -1  -3   87.81    4.34   0
   6  -6   6    7.00    4.10   0
   6  -5   4    1.23    3.90   0
   6  -3   2   -0.21    4.21   0
   1  -5  -1   44.83    1.67   0
   2  -9   3   37.98    2.82   0
   2  -6  -2  631.55    5.55   0
   3 -11   9   20.51    4.05   0
   3  -3  -5 1174.12    7.96   0
   4 -10   6   60.42    4.63   0
   4  -9   3   11.93    3.75   0
   4  -1  -5    4.40    2.53   0
   5  -9   7   12.22    4.25   0
   5  -7   2    4.04    3.81   0
   5  -5  -1    2.39    3.61   0
   6  -6   5    3.14    4.56   0
   2 -10   5   14.98    2.83   0
   2  -4  -4    0.44    1.39   0
   2  -2  -5  109.17    2.20   0
   3 -10   4   74.63    4.18   0
   3  -7  -2  506.68    6.45   0
   3  -6  -3  179.48    4.08   0
   3  -5  -4 1371.93    9.33   0
   3   0  -6  317.88    3.85   0
   4 -11  11   20.33    4.42   0
   4 -11  12   25.47    4.45   0
   4 -10   5    3.83    3.82   0
   5  -9   6    6.11    4.16   0
   5  -7   1   22.70    3.98   0
   5  -4  -2   18.78    3.78   0
   6  -5   3    8.65    4.18   0
   6  -3   1   21.71    4.36   0
   6  -1   0  250.10    6.48   0
   1  -8   3  593.39    5.05   0
   1  -7   1   11.68    1.71   0
   2  -8   0   30.99    2.50   0
   3  -4  -5   -0.35    1.94   0
   4 -11   9  109.92    5.27   0
   4  -3  -5  220.86    4.87   0
   5 -10   9   25.09    4.28   0
   5  -9   5    1.93    4.06   0
   5   0  -4  708.34    8.22   0
   6  -6   4   32.78    4.50   0
   1  -9   5  154.61    3.27   0
   2 -11   8  640.00    7.61   0
   2 -10   4    2.16    2.61   0
   2  -3  -5    1.23    1.40   0
   3 -10   3    2.63    3.18   0
   3  -8  -1   17.94    2.26   0
   3  -2  -6   83.46    2.68   0
   4 -11   8   37.98    4.62   0
   4 -10   4   79.45    4.75   0
   4  -7  -2   55.52    3.95   0
   4  -5  -4   16.42    3.24   0
   5 -10   8   -0.67    4.07   0
   5  -9   4   74.73    4.94   0
   5  -6  -1   19.52    4.03   0
   5  -5  -2   65.89    4.53   0
   5  -4  -3  159.13    5.41   0
   5  -2  -4  517.14    7.63   0
   5  -1  -4    2.86    3.52   0
   6  -7   5   13.51    4.12   0
   6  -5   2   68.82    4.93   0
   6  -3   0   14.05    4.30   0
   6  -1  -1    8.01    4.77   0
   2  -9   1   94.16    3.35   0
   2  -7  -2 1655.87    9.27   0
   2  -6  -3   12.96    1.43   0
   3 -10   2   -3.92    3.05   0
   3  -6  -4   74.60    3.21   0
   4 -10   3  252.56    6.42   0
   4  -1  -6    9.13    2.68   0
   4   0  -6    4.43    2.41   0
   4   1  -6    9.46    2.37   0
   5 -10   7  132.41    5.65   0
   1  -8   2  446.42    4.53   0
   1  -6  -1   -0.53    1.48   0
   1  -5  -2  355.73    3.56   0
   2 -11   7  308.25    5.50   0
   2 -10   3   64.17    3.33   0
   2  -8  -1  460.35    5.48   0
   3 -11   5  252.88    6.11   0
   3  -8  -2   24.12    3.03   0
   3  -5  -5  505.05    5.94   0
   4  -2  -6    8.03    2.74   0
   5 -10   6   96.49    5.37   0
   5  -9   3    5.57    4.22   0
   5  -3  -4   28.34    3.85   0
   6  -7   4   20.14    4.19   0
   6  -5   1    1.82    3.95   0
   6  -3  -1   22.62    4.19   0
   1  -9   4  400.50    4.46   0
   2  -4  -5   32.33    1.57   0
   2  -1  -6   18.22    1.51   0
   2   1  -6   15.57    1.40   0
   3 -12   9   26.62    4.83   0
   3 -10   1    4.38    3.14   0
   3  -4  -6    3.50    2.06   0
   4 -11   5   -0.66    3.98   0
   4 -10   2    8.02    3.87   0
   4  -7  -3    5.61    3.22   0
   4  -6  -4  401.52    6.75   0
   4  -3  -6    1.16    2.76   0
   5 -10   5  178.86    6.22   0
   5  -9   2   14.62    4.13   0
   5  -7  -1   18.53    3.11   0
   5  -4  -4   15.07    3.74   0
   5  -1  -5   74.14    4.27   0
   6  -7   3    0.56    3.97   0
   2  -6  -4  231.65    3.72   0
   2  -2  -6   32.36    1.80   0
   3 -12   8    0.31    4.06   0
   3  -1  -7  910.51    6.54   0
   4 -11   4    7.60    3.97   0
   4 -10   1   58.75    4.41   0
   6  -6   1  213.35    6.36   0
   6  -5   0    2.73    3.97   0
   1  -2  -4 3383.48    8.77   0
   2 -11   5   14.10    3.02   0
   2  -5  -5    2.06    1.72   0
   2  -3  -6   21.39    1.82   0
   3 -12   7    0.71    3.95   0
   3  -6  -5    6.77    1.84   0
   3  -2  -7   56.72    2.36   0
   3   1  -7  892.01    5.87   0
   4 -12   8   40.58    4.66   0
   4  -9  -1   34.03    4.01   0
   4  -7  -4  218.17    5.62   0
   5  -9   1   -2.11    3.88   0
   5  -7  -2   12.05    3.95   0
   5  -6  -3  274.02    6.64   0
   6  -7   2   -2.42    3.98   0
   6  -3  -2    2.66    4.28   0
   3 -12   6    1.39    3.96   0
   3 -11   2  126.11    4.99   0
   3  -3  -7 1136.18    7.92   0
   4 -11   3   28.20    4.07   0
   4 -10   0  179.93    5.80   0
   4  -8  -3  153.51    5.25   0
   4  -5  -6   11.89    3.19   0
   4   1  -7   98.09    3.53   0
   6  -7   1    0.87    3.88   0
   6  -6   0    8.12    4.19   0
   1  -7  -1   15.70    1.90   0
   1  -3  -4  325.24    3.04   0
   2  -4  -6   64.78    2.37   0
   3 -12   5   19.24    4.26   0
   4 -12   6    1.87    4.15   0
   4 -11   2   87.29    4.98   0
   4  -9  -2  130.03    5.10   0
   5 -10   2   -2.49    4.03   0
   5  -7  -3   37.14    4.32   0
   5  -2  -6  299.51    6.28   0
   5  -1  -6   -0.44    3.46   0
   6  -2  -3    4.03    4.18   0
   1 -10   5  752.82    6.14   0
   1  -9   2   57.56    2.38   0
   2 -11   3  309.98    5.51   0
   2  -8  -3   28.50    2.44   0
   2  -7  -4 1102.39    7.92   0
   3 -12   4    3.10    4.47   0
   3 -11   1    6.39    3.64   0
   3 -10  -1    7.32    3.38   0
   3  -9  -3    4.92    3.08   0
   3  -8  -4    1.56    2.80   0
   4 -12   5    3.59    4.19   0
   4 -10  -1   70.88    4.58   0
   4  -7  -5    7.26    3.45   0
   4  -6  -6  104.74    4.36   0
   5 -11   4   37.94    4.96   0
   5  -8  -2    2.71    3.78   0
   5  -5  -5    1.96    3.73   0
   5  -3  -6   14.29    3.82   0
   6  -7   0    2.37    4.04   0
   6  -6  -1  208.75    6.29   0
   6  -3  -3    5.87    4.22   0
   2  -9  -2  449.24    5.88   0
   2  -2  -7    0.66    1.61   0
   2  -1  -7  778.58    5.30   0
   3  -5  -7  208.09    4.28   0
   3  -1  -8  112.87    2.87   0
   4 -11   1   93.42    5.06   0
   4  -9  -3   14.48    3.82   0
   5 -10   1    1.23    3.87   0
   5  -7  -4   54.19    4.44   0
   6  -4  -3   19.96    4.40   0
   1 -10   4  237.70    3.89   0
   2 -12   6   14.89    3.37   0
   2 -11   2  277.73    5.38   0
   2  -3  -7  237.16    3.59   0
   3 -10  -2    2.45    3.33   0
   3  -3  -8  244.83    4.15   0
   3   0  -8  115.94    2.74   0
   4 -12   3    4.87    4.24   0
   4 -11   0   90.53    4.87   0
   4 -10  -2    6.08    3.62   0
   4  -5  -7  323.79    6.08   0
   4  -2  -8  396.20    5.90   0
   4  -1  -8   46.54    3.11   0
   5 -11   3   12.19    4.20   0
   5  -6  -5  228.25    6.34   0
   6  -6  -2   39.02    4.55   0
   6  -5  -3   14.35    4.12   0
   1  -7  -2  362.31    4.22   0
   2 -10  -1  229.46    4.79   0
   2  -8  -4  182.22    3.98   0
   2  -7  -5  292.54    4.55   0
   3 -12   2    2.87    3.84   0
   3  -9  -4 1360.15   11.52   0
   3  -6  -7   11.45    2.60   0
   4  -8  -5   13.49    3.65   0
   4  -7  -6    3.13    3.30   0
   5 -11   2   -2.09    4.02   0
   5  -9  -2   13.33    3.96   0
   5  -5  -6    9.02    3.94   0
   5  -3  -7    0.79    3.69   0
   5  -2  -7   18.95    3.81   0
   5  -1  -7    1.05    3.47   0
   6  -4  -4    5.07    4.64   0
   1 -10   3  460.97    5.10   0
   1  -8  -1  183.19    3.35   0
   1  -3  -5  809.13    4.97   0
   1  -2  -5  102.01    1.74   0
   2 -11   1  360.38    5.93   0
   2  -4  -7   48.16    2.01   0
   2   1  -7  721.17    4.44   0
   3 -13   6   -2.18    4.33   0
   3 -11  -1    7.36    3.73   0
   3 -10  -3    3.82    3.39   0
   4 -11  -1  107.12    5.19   0
   5 -10  -1   -1.48    4.00   0
   5  -7  -5   12.26    4.06   0
   5  -6  -6  146.99    5.51   0
   5  -4  -7  189.87    5.80   0
   6  -7  -2    0.18    4.02   0
   2  -5  -7  445.00    5.16   0
   3 -13   5  456.20    7.95   0
   4 -13   5    0.59    4.25   0
   4 -12   1   68.67    4.88   0
   4  -8  -6    0.74    3.26   0
   4  -5  -8  361.56    6.39   0
   5 -11   1    0.11    3.81   0
   5  -9  -3    5.14    3.90   0
   6  -5  -4    2.13    4.08   0
   6  -3  -5    5.22    4.63   0
   1 -10   2   27.26    2.70   0
   2 -12   3    5.79    3.26   0
   2  -8  -5  307.36    4.98   0
   2  -7  -6  417.05    5.41   0
   3 -13   4  155.48    5.94   0
   3 -11  -2  126.14    5.12   0
   3  -9  -5  356.37    6.56   0
   3  -7  -7   17.60    2.92   0
   3  -3  -9   96.93    3.12   0
   3  -1  -9  849.17    6.62   0
   4 -13   4    2.03    4.23   0
   4 -11  -2   84.31    4.87   0
   4  -7  -7   -0.51    3.26   0
   4  -3  -9  507.01    6.88   0
   4  -2  -9   11.02    2.98   0
   4  -1  -9  968.92    8.32   0
   5  -2  -8  335.74    6.83   0
   6  -4  -5   20.06    4.39   0
   1  -8  -2  471.47    5.03   0
   2  -9  -4  171.81    4.17   0
   2  -3  -8  930.15    6.72   0
   2  -2  -8  612.01    5.24   0
   2  -1  -8   27.65    1.88   0
   3 -13   3  287.10    7.28   0
   3 -10  -4   67.89    4.18   0
   3  -6  -8    6.12    2.52   0
   3  -4  -9    0.13    2.21   0
   4 -13   3   35.91    4.44   0
   4 -12   0   34.26    4.46   0
   4 -10  -4   80.47    4.72   0
   4  -6  -8    5.47    3.34   0
   5 -12   2   40.07    4.38   0
   5  -9  -4   75.10    5.00   0
   5  -7  -6   16.26    3.96   0
   5  -3  -8   -1.93    3.74   0
   6  -5  -5    0.35    4.60   0
   1 -10   1  206.54    4.09   0
   1  -5  -5   55.24    2.18   0
   2 -10  -3   59.01    3.39   0
   2  -4  -8  536.60    5.50   0
   2   0  -8   -0.17    1.39   0
   2   2  -7    0.20    1.17   0
   3 -11  -3  104.75    5.01   0
   3  -9  -6 1064.20   10.51   0
   3  -8  -7   -0.68    3.02   0
   4 -11  -3   33.11    4.21   0
   4  -8  -7   24.90    3.76   0
   4  -5  -9   46.61    3.79   0
   5 -11  -1    3.12    3.98   0
   5  -4  -8    2.32    3.68   0
   2 -12   1   92.35    4.18   0
   2  -8  -6  174.66    4.11   0
   2  -5  -8  689.46    6.47   0
   3 -13   2   69.00    5.11   0
   3 -12  -1   59.35    4.41   0
   3 -10  -5    9.32    3.65   0
   3   1  -9  843.26    6.08   0
   4 -13   2   44.55    4.51   0
   4 -10  -5    7.14    3.73   0
   4  -7  -8  431.59    7.36   0
   5 -11  -2   -1.85    4.51   0
   5  -9  -5    5.27    3.97   0
   5  -7  -7   -0.25    3.95   0
   5  -5  -8    1.12    3.95   0
   6  -6  -5    1.46    4.10   0
   1  -2  -6 2120.55    7.65   0
   3 -13   1   17.86    4.34   0
   3 -12  -2    5.43    3.81   0
   3 -11  -4  568.87    8.57   0
   3  -6  -9    2.01    2.49   0
   3  -2 -10    5.03    2.46   0
   4 -12  -2   65.42    4.84   0
   4 -11  -4    5.33    3.82   0
   4  -6  -9  238.56    5.73   0
   4  -3 -10  224.00    5.07   0
   5 -10  -4   26.71    4.33   0
   5  -6  -8    2.98    4.05   0
   5  -3  -9   74.08    4.94   0
   5  -2  -9  151.39    5.59   0
   6  -5  -6    2.28    4.16   0
   1 -11   3   63.11    2.89   0
   1  -9  -2   58.64    2.65   0
   1  -4  -6 2970.66   10.41   0
   1  -1  -6   35.98    1.31   0
   2 -10  -4    0.24    2.74   0
   2  -6  -8   64.60    2.90   0
   2   1  -8   26.10    1.71   0
   3  -9  -7   38.46    3.96   0
   3  -8  -8   20.49    3.35   0
   3  -4 -10    6.04    2.41   0
   3  -1 -10    1.09    1.95   0
   4 -14   5   -1.33    4.30   0
   4  -9  -7   -2.60    3.64   0
   4  -1 -10  129.73    3.91   0
   5 -11  -3   15.58    4.03   0
   5  -9  -6    6.73    3.93   0
   5  -4  -9   51.30    4.32   0
   1  -5  -6  467.27    4.70   0
   2 -13   3   30.34    3.73   0
   2  -4  -9  440.00    5.21   0
   2  -3  -9 1884.57    9.69   0
   2  -2  -9  453.88    4.76   0
   3 -10  -6  111.09    4.83   0
   3  -5 -10    6.02    2.54   0
   4 -14   4    1.08    4.34   0
   4 -12  -3    4.66    3.98   0
   4 -11  -5   -2.18    3.65   0
   4  -7  -9   22.21    3.60   0
   4  -5 -10  410.38    6.85   0
   5 -12  -1   12.63    4.08   0
   5  -7  -8    2.65    3.95   0
   5  -5  -9   12.78    4.03   0
   6  -6  -6    4.08    4.08   0
   1 -10  -1  205.17    3.97   0
   1  -7  -5  305.96    4.36   0
   2 -12  -1  103.57    4.28   0
   2 -10  -5   17.82    3.00   0
   2  -5  -9  361.86    5.05   0
   3 -14   3   26.69    4.56   0
   3 -11  -5  269.43    6.63   0
   3  -6 -10    6.19    2.67   0
   3   0 -10    2.68    1.89   0
   4 -14   3    1.84    4.24   0
   4 -13  -1  109.83    5.37   0
   4  -6 -10   38.37    3.81   0
   5 -12  -2   39.28    4.29   0
   6  -5  -7   29.92    4.57   0
   1 -11   1    5.04    2.38   0
   1  -9  -3   71.45    2.87   0
   1  -6  -6  123.57    3.13   0
   3 -12  -4    2.68    3.82   0
   3 -10  -7  151.70    5.27   0
   3  -8  -9   20.81    3.29   0
   4 -13  -2   44.52    5.09   0
   4 -12  -4   13.07    4.07   0
   4  -8  -9  144.39    5.19   0
   4  -3 -11  142.78    4.47   0
   5 -10  -6   94.42    5.24   0
   5  -9  -7    8.37    4.08   0
   5  -8  -8    3.94    4.00   0
   5  -4 -10   46.39    4.37   0
   0  -8   3 1172.36    5.45   0
   1  -4  -7 1228.80    7.06   0
   1  -3  -7  145.00    2.60   0
   2 -13   1  536.81    7.55   0
   3 -11  -6   14.87    4.02   0
   3  -7 -10   37.59    3.34   0
   3  -4 -11    1.64    2.46   0
   3  -2 -11   -1.64    2.13   0
   3   1 -10   -0.02    2.00   0
   4 -11  -6    4.05    3.70   0
   4  -7 -10  171.69    5.33   0
   4  -5 -11   18.49    3.48   0
   4  -1 -11  189.59    4.42   0
   5  -7  -9    8.07    4.04   0
   5  -5 -10   33.88    4.27   0
   1  -8  -5 5449.38   17.26   0
   1  -2  -7  774.37    4.84   0
   2 -13   0  202.09    5.45   0
   2 -10  -6  119.47    4.25   0
   2  -4 -10    2.01    2.10   0
   3 -14   1   41.44    4.77   0
   3 -12  -5   17.70    3.98   0
   3  -5 -11   19.09    2.84   0
   4 -14   0   25.05    4.35   0
   4 -13  -3   37.93    4.50   0
   4 -12  -5    1.48    3.91   0
   4 -10  -8   15.16    3.97   0
   4  -9  -9   10.66    3.81   0
   4  -6 -11   56.68    4.09   0
   5  -9  -8   11.43    3.86   0
   5  -6 -10    7.43    4.04   0
   1  -9  -4  414.83    5.31   0
   1  -7  -6  273.42    3.98   0
   1  -1  -7  428.04    3.45   0
   2 -11  -5   16.89    3.28   0
   2   2  -8  542.22    3.67   0
   3 -13  -3  305.59    7.31   0
   3 -10  -8   65.76    4.34   0
   3  -8 -10   -1.31    3.01   0
   4 -11  -7   11.03    3.88   0
   4  -8 -10    0.50    3.46   0
   5 -11  -6    0.56    3.75   0
   5  -8  -9    3.53    3.97   0
   0  -8   2   24.10    1.40   0
   0  -6  -1 3400.25    9.19   0
   1  -6  -7 1023.66    7.33   0
   2 -13  -1  537.83    7.69   0
   2  -9  -8  377.19    6.16   0
   2  -6 -10   18.82    2.62   0
   2  -1 -10  161.33    3.08   0
   2   1  -9 2238.95    8.19   0
   3 -14  -1   41.58    4.80   0
   3  -7 -11    0.55    2.87   0
   4 -14  -1   10.11    4.21   0
   4 -13  -4    1.84    4.04   0
   4 -12  -6   -3.37    3.81   0
   4  -7 -11   -3.13    3.38   0
   4  -4 -12  202.67    5.19   0
   4  -3 -12   10.86    3.06   0
   5  -4 -11   26.61    4.20   0
   5  -3 -11   -0.43    3.73   0
   1  -9  -5  155.78    3.80   0
   2 -11  -6   -0.41    3.07   0
   3 -13  -4  145.41    5.71   0
   3 -12  -6   -1.55    3.72   0
   3 -10  -9    4.52    3.63   0
   3  -9 -10   32.04    3.61   0
   3  -4 -12    3.10    2.59   0
   3  -2 -12   14.26    2.80   0
   4  -9 -10  150.46    5.42   0
   4  -2 -12  219.34    4.92   0
   5 -10  -8   -1.48    3.86   0
   5  -9  -9    9.17    4.08   0
   5  -8 -10    3.96    4.40   0
   5  -6 -11   24.10    4.04   0
   0  -8   1 1960.59    7.61   0
   1 -12   1    2.28    2.58   0
   1 -11  -2  272.85    4.81   0
   1 -10  -4  249.37    4.63   0
   1  -7  -7   10.27    2.22   0
   1  -4  -8  336.45    3.91   0
   1  -3  -8  176.64    2.97   0
   2  -7 -10 1354.64   10.30   0
   2  -4 -11  134.03    3.54   0
   2  -3 -11  700.31    6.46   0
   2   0 -10 1115.06    6.57   0
   3 -14  -2   11.62    4.47   0
   3  -8 -11   -1.53    3.02   0
   3  -6 -12    8.27    2.94   0
   4 -13  -5    1.03    3.88   0
   4 -12  -7   12.12    3.91   0
   4  -6 -12    2.07    3.26   0
   5 -11  -7    8.74    3.78   0
   0  -6  -2  172.72    2.59   0
   1  -2  -8 1296.16    6.57   0
   2 -14   1   38.08    4.16   0
   2 -13  -3   27.05    3.82   0
   2 -12  -5   18.02    3.50   0
   2 -10  -8   66.79    3.85   0
   2  -9  -9   58.66    3.66   0
   2  -5 -11   84.20    3.24   0
   2  -2 -11   21.57    2.09   0
   3 -14  -3   23.52    5.08   0
   3 -13  -5  399.43    7.88   0
   3 -12  -7   -1.42    3.83   0
   3  -1 -12  117.59    3.31   0
   4 -10 -10   56.60    4.50   0
   4  -7 -12  151.69    5.22   0
   0  -8   0   78.34    2.27   0
   1 -11  -3   72.10    3.36   0
   1  -9  -6  125.92    3.58   0
   1  -8  -7  230.32    4.28   0
   2 -11  -7  316.76    6.28   0
   2  -6 -11  182.41    4.29   0
   3 -11  -9   15.72    3.87   0
   3  -9 -11    0.18    3.24   0
   4 -14  -4   -0.52    3.82   0
   4 -13  -6    5.57    4.01   0
   4  -9 -11   19.68    3.85   0
   4  -8 -12   12.31    3.58   0
   4  -5 -13  157.15    5.01   0
   4  -4 -13   18.42    3.43   0
   4  -3 -13   86.60    4.03   0
   5 -11  -8    4.19    3.84   0
   5  -9 -10    1.82    3.73   0
   5  -8 -11   14.79    3.95   0
   5  -5 -12   21.06    4.22   0
   0  -4  -3  367.39    2.94   0
   1 -10  -5  784.12    7.60   0
   1  -7  -8  162.39    3.74   0
   1  -1  -8    5.58    1.19   0
   2 -14  -1   42.24    4.12   0
   2 -13  -4   19.27    3.83   0
   2 -12  -6   15.19    3.60   0
   2  -1 -11 1384.49    7.90   0
   3 -14  -4    7.39    4.45   0
   3 -13  -6    8.15    4.03   0
   3 -12  -8   -1.15    3.82   0
   3  -8 -12    4.92    3.23   0
   3  -5 -13  334.99    5.87   0
   3  -3 -13  715.15    7.42   0
   3   0 -12    8.70    2.47   0
   4  -6 -13   82.83    4.47   0
   5  -6 -12    3.68    3.95   0
   1  -5  -9  472.07    5.24   0
   1  -4  -9   24.86    2.16   0
   1  -3  -9  244.80    3.56   0
   2 -11  -8  620.66    8.29   0
   2 -10  -9  100.42    4.23   0
   2  -5 -12  741.31    7.49   0
   2  -4 -12  199.45    4.18   0
   3  -6 -13   16.01    3.18   0
   3  -2 -13    2.32    2.43   0
   4 -14  -5    1.51    3.89   0
   4 -13  -7   42.74    4.44   0
   4 -10 -11   16.37    3.88   0
   4  -7 -13   12.39    3.70   0
   5 -10 -10    3.85    3.87   0
   5  -9 -11    5.02    3.70   0
   5  -7 -12   19.03    4.16   0
   0  -8  -1 2133.23    8.52   0
   0  -6  -3 1689.15    7.15   0
   1 -12  -2  230.11    4.81   0
   1 -10  -6   87.28    3.55   0
   1  -9  -7   16.06    2.51   0
   1  -8  -8   61.44    3.00   0
   2 -14  -2   35.89    4.09   0
   2 -12  -7  104.07    4.68   0
   2   2  -9  397.10    3.28   0
   3 -12  -9   28.22    4.14   0
   3 -11 -10    5.74    3.74   0
   3  -9 -12  154.53    5.09   0
   3  -7 -13   21.27    3.43   0
   5  -4 -13   16.39    4.09   0
   1  -7  -9   -0.70    2.16   0
   1  -2  -9  213.98    2.91   0
   2 -14  -3    0.06    3.68   0
   2 -10 -10    1.54    3.17   0
   3  -8 -13    9.12    3.23   0
   3  -1 -13  843.68    7.24   0
   4 -14  -6    2.16    3.85   0
   4 -13  -8   60.61    4.59   0
   4  -5 -14   88.02    4.47   0
   4  -4 -14    1.78    3.32   0
   4  -3 -14   51.28    3.75   0
   5  -6 -13  106.47    5.07   0
   0  -8  -2   43.37    2.03   0
   0  -4  -4 1025.82    5.03   0
   1 -10  -7  505.48    6.54   0
   1  -9  -8  361.65    5.52   0
   1  -5 -10  267.37    4.24   0
   1   0  -8 1107.23    5.20   0
   3 -14  -6   14.05    4.48   0
   3 -13  -8  112.58    5.54   0
   3 -10 -12   40.49    3.97   0
   3  -6 -14  118.08    4.41   0
   3  -5 -14  726.78    8.17   0
   3  -3 -14   45.55    3.17   0
   4 -12 -10   59.34    4.58   0
   4 -11 -11   20.08    3.82   0
   4 -10 -12    6.55    3.66   0
   4  -9 -13   36.64    4.09   0
   4  -7 -14   66.77    4.42   0
   4  -2 -14    2.69    3.62   0
   5  -9 -12   19.19    4.04   0
   5  -7 -13   18.04    4.20   0
   0  -6  -4    0.54    1.41   0
   1 -12  -4  386.11    6.05   0
   1 -11  -6  354.06    5.85   0
   1  -4 -10   59.45    2.15   0
   1  -3 -10   22.02    2.04   0
   1  -1  -9  400.14    3.70   0
   2 -14  -4   40.39    4.20   0
   2  -6 -13  125.64    4.12   0
   2  -5 -13  204.92    4.57   0
   2  -4 -13   73.63    3.22   0
   2  -1 -12   -1.80    1.71   0
   3 -15  -4   -0.44    4.30   0
   3 -12 -10   45.82    4.53   0
   3  -9 -13   -0.49    3.38   0
   3  -7 -14  363.67    6.59   0
   4 -14  -7   -0.66    3.84   0
   1  -7 -10   99.98    3.35   0
   2 -14  -5    2.98    4.30   0
   2 -13  -7   25.16    3.91   0
   2 -11 -10  153.24    5.12   0
   2 -10 -11  141.34    4.87   0
   2  -3 -13  886.85    7.58   0
   3 -13  -9    0.36    4.01   0
   3  -8 -14   33.70    3.71   0
   4 -11 -12   25.08    4.03   0
   4 -10 -13   43.73    4.08   0
   4  -8 -14    3.74    3.50   0
   4  -5 -15    1.52    3.24   0
   4  -4 -15   19.91    4.01   0
   5  -6 -14   10.61    4.46   0
   5  -5 -14   18.33    4.12   0
   0  -4  -5   45.69    1.52   0
   1 -12  -5  299.41    5.67   0
   1  -9  -9   14.79    2.73   0
   2 -12  -9  284.58    6.37   0
   3 -15  -5  157.60    5.95   0
   3 -11 -12   35.72    4.25   0
   3 -10 -13   -0.32    3.39   0
   3  -6 -15    4.18    3.08   0
   3  -5 -15  312.91    5.89   0
   3  -4 -15    0.33    2.84   0
   3  -1 -14    9.35    2.86   0
   4  -6 -15    1.46    3.55   0
   4  -3 -15   40.01    3.72   0
   5  -7 -14   16.43    3.97   0
   0 -10   0  257.78    3.80   0
   0  -6  -5    0.95    1.48   0
   1 -13  -3  309.30    5.67   0
   1  -8 -10   17.36    2.08   0
   1  -6 -11    4.42    2.27   0
   1  -4 -11   46.25    2.50   0
   2 -15  -3   37.17    4.80   0
   2 -14  -6   13.14    3.89   0
   2 -13  -8   48.11    4.22   0
   2 -11 -11  161.51    5.27   0
   2  -8 -13    8.83    2.36   0
   2  -5 -14  134.05    4.05   0
   2   0 -12   38.87    2.01   0
   3 -15  -6   -3.26    4.31   0
   3 -14  -8   17.01    4.20   0
   3 -13 -10   -0.68    3.96   0
   3  -9 -14  482.75    7.80   0
   3  -7 -15  128.63    4.70   0
   1 -10  -9  299.14    5.58   0
   1  -9 -10    0.53    2.63   0
   1  -3 -11   35.76    2.25   0
   2 -12 -10   93.99    4.70   0
   2  -7 -14  506.59    7.24   0
   2  -6 -14   18.22    3.08   0
   2  -4 -14    9.21    2.60   0
   2  -1 -13  704.87    6.05   0
   4  -8 -15    3.65    3.59   0
   0  -6  -6   29.91    1.95   0
   1  -8 -11  118.57    3.83   0
   1  -1 -10   85.98    2.21   0
   2 -15  -4   -0.77    3.87   0
   2 -14  -7   20.59    3.99   0
   2  -3 -14  184.63    4.06   0
   3 -15  -7  172.43    6.03   0
   3 -14  -9   64.30    4.76   0
   3 -12 -12    3.23    3.71   0
   3 -10 -14    5.97    3.56   0
   4  -6 -16   29.88    3.88   0
   4  -5 -16   55.28    4.12   0
   5  -6 -15  118.88    5.13   0
   0  -4  -6   30.99    1.28   0
   2  -8 -14   77.02    3.49   0
;
_shelx_hkl_checksum               22519
_olex2_submission_special_instructions 'No special instructions were received'
