data_sg-v3551-15-19
_audit_creation_date              2022-01-19
_audit_creation_method
;
Olex2 1.2
(compiled 2017.08.10 svn.r3458 for OlexSys, GUI svn.r5381)
;
_shelx_SHELXL_version_number      '2018/3'
_publ_contact_author_address      ?
_publ_contact_author_email        ?
_publ_contact_author_id_orcid     ?
_publ_contact_author_name         ''
_publ_contact_author_phone        ?
_publ_section_references
;
Dolomanov, O.V., Bourhis, L.J., Gildea, R.J, Howard, J.A.K. & Puschmann, H.
 (2009), J. Appl. Cryst. 42, 339-341.

Sheldrick, G.M. (2015). Acta Cryst. A71, 3-8.

Sheldrick, G.M. (2015). Acta Cryst. C71, 3-8.
;
_chemical_name_common             ?
_chemical_name_systematic         ?
_chemical_formula_moiety          'C14 H8 Cl F3 N2'
_chemical_formula_sum             'C14 H8 Cl F3 N2'
_chemical_formula_weight          296.67
_chemical_melting_point           ?
loop_
  _atom_type_symbol
  _atom_type_description
  _atom_type_scat_dispersion_real
  _atom_type_scat_dispersion_imag
  _atom_type_scat_source
 'C' 'C' 0.0150 0.0070 'International Tables Vol C Tables 4.2.6.8 and 6.1.1.4'
 'H' 'H' 0.0000 0.0000 'International Tables Vol C Tables 4.2.6.8 and 6.1.1.4'
 'Cl' 'Cl' 0.3290 0.5400 'International Tables Vol C Tables 4.2.6.8 and 6.1.1.4'
 'F' 'F' 0.0600 0.0410 'International Tables Vol C Tables 4.2.6.8 and 6.1.1.4'
 'N' 'N' 0.0250 0.0140 'International Tables Vol C Tables 4.2.6.8 and 6.1.1.4'

_shelx_space_group_comment
;
The symmetry employed for this shelxl refinement is uniquely defined
by the following loop, which should always be used as a source of
symmetry information in preference to the above space-group names.
They are only intended as comments.
;
_space_group_crystal_system       'monoclinic'
_space_group_IT_number            14
_space_group_name_H-M_alt         'P 1 21/c 1'
_space_group_name_Hall            '-P 2ybc'
loop_
  _space_group_symop_operation_xyz
 'x, y, z'
 '-x, y+1/2, -z+1/2'
 '-x, -y, -z'
 'x, -y-1/2, z-1/2'

_cell_length_a                    10.6224(12)
_cell_length_b                    15.1386(19)
_cell_length_c                    8.1382(9)
_cell_angle_alpha                 90
_cell_angle_beta                  108.692(8)
_cell_angle_gamma                 90
_cell_volume                      1239.7(3)
_cell_formula_units_Z             4
_cell_measurement_reflns_used     2354
_cell_measurement_temperature     150
_cell_measurement_theta_max       63.86
_cell_measurement_theta_min       20.66
_shelx_estimated_absorpt_T_max    ?
_shelx_estimated_absorpt_T_min    ?
_exptl_absorpt_coefficient_mu     1.960
_exptl_absorpt_correction_T_max   1.0000
_exptl_absorpt_correction_T_min   0.2316
_exptl_absorpt_correction_type    multi-scan
_exptl_absorpt_process_details
;
STOE LANA, absorption correction by scaling of reflection intensities.
J. Koziskova, F. Hahn, J. Richter, J. Kozisek, "Comparison of different
absorption corrections on the model structure of tetrakis(\m~2~-acetato)-
diaqua-di-copper(II)", Acta Chimica Slovaca, vol. 9, no. 2, 2016, pp. 136 - 140.
;
_exptl_absorpt_special_details    ?
_exptl_crystal_colour             colourless
_exptl_crystal_colour_primary     colourless
_exptl_crystal_density_diffrn     1.590
_exptl_crystal_density_meas       ?
_exptl_crystal_density_method     'not measured'
_exptl_crystal_description        plate
_exptl_crystal_F_000              600
_exptl_crystal_size_max           0.15
_exptl_crystal_size_mid           0.13
_exptl_crystal_size_min           0.03
_exptl_transmission_factor_max    ?
_exptl_transmission_factor_min    ?
_diffrn_reflns_av_R_equivalents   0.0536
_diffrn_reflns_av_unetI/netI      0.0468
_diffrn_reflns_Laue_measured_fraction_full 0.975
_diffrn_reflns_Laue_measured_fraction_max 0.964
_diffrn_reflns_limit_h_max        14
_diffrn_reflns_limit_h_min        -11
_diffrn_reflns_limit_k_max        19
_diffrn_reflns_limit_k_min        -6
_diffrn_reflns_limit_l_max        10
_diffrn_reflns_limit_l_min        -10
_diffrn_reflns_number             6889
_diffrn_reflns_point_group_measured_fraction_full 0.975
_diffrn_reflns_point_group_measured_fraction_max 0.964
_diffrn_reflns_theta_full         53.597
_diffrn_reflns_theta_max          62.453
_diffrn_reflns_theta_min          3.822
_diffrn_ambient_temperature       150
_diffrn_detector                  'Eiger R 4M'
_diffrn_detector_area_resol_mean  13.33
_diffrn_detector_type             DECTRIS
_diffrn_measured_fraction_theta_full 0.975
_diffrn_measured_fraction_theta_max 0.964
_diffrn_measurement_details
;
 770 frames, detector distance = 80 mm
;
_diffrn_measurement_device        'Eulerian 4-circle diffractometer'
_diffrn_measurement_device_type   'Stoe StadiVari'
_diffrn_measurement_method        'rotation method, \w scans'
_diffrn_radiation_collimation     '1.2 0.6 mm diameter'
_diffrn_radiation_monochromator   'Graded multilayer mirror'
_diffrn_radiation_polarisn_norm   0
_diffrn_radiation_probe           x-ray
_diffrn_radiation_type            GaK\a
_diffrn_radiation_wavelength      1.34143
_diffrn_source                    'Metaljet D2'
_diffrn_source_current            3.570
_diffrn_source_power              0.250
_diffrn_source_target             Ga
_diffrn_source_type               'Metaljet D2'
_diffrn_source_voltage            70
_reflns_Friedel_coverage          0.000
_reflns_Friedel_fraction_full     .
_reflns_Friedel_fraction_max      .
_reflns_number_gt                 2314
_reflns_number_total              2902
_reflns_special_details
;
 Reflections were merged by SHELXL according to the crystal
 class for the calculation of statistics and refinement.
 
 _reflns_Friedel_fraction is defined as the number of unique
 Friedel pairs measured divided by the number that would be
 possible theoretically, ignoring centric projections and
 systematic absences.
;
_reflns_threshold_expression      'I > 2\s(I)'
_computing_cell_refinement
;
X-Area Recipe 1.36.0.0 (STOE, 2020)
;
_computing_data_collection
;
X-Area Pilatus3_SV 1.31.170.0 (STOE, 2020)
;
_computing_data_reduction
;
X-Area Integrate 1.78.3.0 (STOE, 2020)
X-Area LANA 1.83.8.0 (STOE, 2020)
;
_computing_molecular_graphics     'Olex2 (Dolomanov et al., 2009)'
_computing_publication_material   'Olex2 (Dolomanov et al., 2009)'
_computing_structure_refinement   'ShelXL (Sheldrick, 2015)'
_computing_structure_solution     'ShelXT (Sheldrick, 2015)'
_refine_diff_density_max          1.439
_refine_diff_density_min          -0.808
_refine_diff_density_rms          0.140
_refine_ls_extinction_coef        .
_refine_ls_extinction_method      none
_refine_ls_goodness_of_fit_ref    1.159
_refine_ls_hydrogen_treatment     constr
_refine_ls_matrix_type            full
_refine_ls_number_parameters      181
_refine_ls_number_reflns          2902
_refine_ls_number_restraints      0
_refine_ls_R_factor_all           0.1056
_refine_ls_R_factor_gt            0.0960
_refine_ls_restrained_S_all       1.159
_refine_ls_shift/su_max           0.000
_refine_ls_shift/su_mean          0.000
_refine_ls_structure_factor_coef  Fsqd
_refine_ls_weighting_details
'w=1/[\s^2^(Fo^2^)+(0.2000P)^2^] where P=(Fo^2^+2Fc^2^)/3'
_refine_ls_weighting_scheme       calc
_refine_ls_wR_factor_gt           0.2621
_refine_ls_wR_factor_ref          0.2756
_refine_special_details           ?
_olex2_refinement_description
;
1. Fixed Uiso
 At 1.2 times of:
  All C(H) groups
2.a Aromatic/amide H refined with riding coordinates:
 C3(H3), C5(H5), C6(H6), C9(H9), C10(H10), C11(H11), C12(H12), C13(H13)
;
_atom_sites_solution_hydrogens    geom
_atom_sites_solution_primary      dual
_atom_sites_solution_secondary    ?
loop_
  _atom_site_label
  _atom_site_type_symbol
  _atom_site_fract_x
  _atom_site_fract_y
  _atom_site_fract_z
  _atom_site_U_iso_or_equiv
  _atom_site_adp_type
  _atom_site_occupancy
  _atom_site_site_symmetry_order
  _atom_site_calc_flag
  _atom_site_refinement_flags_posn
  _atom_site_refinement_flags_adp
  _atom_site_refinement_flags_occupancy
  _atom_site_disorder_assembly
  _atom_site_disorder_group
 Cl1 Cl 0.86048(8) 0.49163(6) 0.72273(9) 0.0488(3) Uani 1 1 d . . . . .
 F1 F 0.8795(4) 0.7278(3) 0.2050(4) 0.1113(14) Uani 1 1 d . . . . .
 F2 F 0.8609(3) 0.59946(17) 0.0940(3) 0.0710(8) Uani 1 1 d . . . . .
 F3 F 0.7049(3) 0.69168(19) 0.0062(3) 0.0766(8) Uani 1 1 d . . . . .
 N1 N 0.5694(2) 0.63491(15) 0.4090(3) 0.0364(5) Uani 1 1 d . . . . .
 N2 N 0.5786(2) 0.57374(16) 0.6635(3) 0.0381(6) Uani 1 1 d . . . . .
 C1 C 0.6423(3) 0.58389(17) 0.5500(4) 0.0361(6) Uani 1 1 d . . . . .
 C2 C 0.7693(3) 0.55510(19) 0.5504(4) 0.0393(6) Uani 1 1 d . . . . .
 C3 C 0.8171(3) 0.57740(18) 0.4202(4) 0.0390(6) Uani 1 1 d . . . . .
 H3 H 0.902598 0.558092 0.421921 0.047 Uiso 1 1 calc R . . . .
 C4 C 0.7375(3) 0.62997(18) 0.2814(4) 0.0385(6) Uani 1 1 d . . . . .
 C5 C 0.6161(3) 0.65859(19) 0.2766(4) 0.0390(6) Uani 1 1 d . . . . .
 H5 H 0.564173 0.694312 0.183493 0.047 Uiso 1 1 calc R . . . .
 C6 C 0.4535(3) 0.65786(18) 0.4402(4) 0.0376(6) Uani 1 1 d . . . . .
 H6 H 0.382919 0.692858 0.368680 0.045 Uiso 1 1 calc R . . . .
 C7 C 0.4613(3) 0.61965(18) 0.5963(4) 0.0368(6) Uani 1 1 d . . . . .
 C8 C 0.3661(3) 0.62407(19) 0.6917(4) 0.0395(7) Uani 1 1 d . . . . .
 C9 C 0.3966(3) 0.58735(19) 0.8563(4) 0.0418(7) Uani 1 1 d . . . . .
 H9 H 0.481124 0.560761 0.907720 0.050 Uiso 1 1 calc R . . . .
 C10 C 0.3053(4) 0.5887(2) 0.9478(5) 0.0493(8) Uani 1 1 d . . . . .
 H10 H 0.327416 0.563007 1.059981 0.059 Uiso 1 1 calc R . . . .
 C11 C 0.1825(4) 0.6279(2) 0.8732(5) 0.0530(8) Uani 1 1 d . . . . .
 H11 H 0.120002 0.629152 0.934478 0.064 Uiso 1 1 calc R . . . .
 C12 C 0.1504(4) 0.6652(2) 0.7103(5) 0.0538(8) Uani 1 1 d . . . . .
 H12 H 0.065903 0.692040 0.659792 0.065 Uiso 1 1 calc R . . . .
 C13 C 0.2418(3) 0.6637(2) 0.6196(4) 0.0455(7) Uani 1 1 d . . . . .
 H13 H 0.219314 0.689820 0.507761 0.055 Uiso 1 1 calc R . . . .
 C14 C 0.7952(3) 0.6616(2) 0.1464(4) 0.0462(7) Uani 1 1 d . . . . .

loop_
  _atom_site_aniso_label
  _atom_site_aniso_U_11
  _atom_site_aniso_U_22
  _atom_site_aniso_U_33
  _atom_site_aniso_U_23
  _atom_site_aniso_U_13
  _atom_site_aniso_U_12
 Cl1 0.0532(5) 0.0541(6) 0.0392(5) 0.0082(3) 0.0150(3) 0.0120(3)
 F1 0.157(3) 0.113(3) 0.090(2) -0.0345(18) 0.077(2) -0.088(2)
 F2 0.1006(18) 0.0646(15) 0.0652(14) 0.0242(11) 0.0513(13) 0.0306(12)
 F3 0.0913(18) 0.0839(18) 0.0682(15) 0.0424(13) 0.0447(13) 0.0289(14)
 N1 0.0477(13) 0.0244(11) 0.0386(12) 0.0014(9) 0.0160(9) 0.0002(9)
 N2 0.0483(13) 0.0301(12) 0.0380(12) -0.0011(9) 0.0169(9) 0.0005(9)
 C1 0.0506(16) 0.0233(13) 0.0355(13) 0.0007(9) 0.0153(11) -0.0007(10)
 C2 0.0492(16) 0.0310(14) 0.0378(14) -0.0019(11) 0.0143(11) -0.0003(11)
 C3 0.0483(16) 0.0302(14) 0.0399(14) -0.0015(11) 0.0160(11) -0.0016(11)
 C4 0.0556(17) 0.0250(14) 0.0376(14) -0.0008(10) 0.0186(12) -0.0034(10)
 C5 0.0563(16) 0.0269(14) 0.0352(13) 0.0023(10) 0.0165(11) -0.0030(10)
 C6 0.0463(15) 0.0265(13) 0.0400(14) 0.0003(10) 0.0138(11) 0.0009(10)
 C7 0.0458(15) 0.0251(13) 0.0400(14) -0.0008(10) 0.0147(11) -0.0004(10)
 C8 0.0498(16) 0.0265(14) 0.0450(15) -0.0065(11) 0.0189(12) -0.0019(10)
 C9 0.0523(17) 0.0322(14) 0.0436(15) -0.0027(11) 0.0192(12) -0.0020(11)
 C10 0.063(2) 0.0439(18) 0.0486(17) -0.0065(13) 0.0293(15) -0.0057(13)
 C11 0.061(2) 0.048(2) 0.0587(19) -0.0125(15) 0.0319(16) -0.0036(15)
 C12 0.0507(18) 0.0445(19) 0.070(2) -0.0085(16) 0.0242(15) 0.0049(13)
 C13 0.0530(17) 0.0344(16) 0.0499(17) -0.0042(12) 0.0176(13) 0.0040(11)
 C14 0.0618(19) 0.0347(16) 0.0477(16) 0.0053(12) 0.0256(14) -0.0013(12)

_geom_special_details
;
 All esds (except the esd in the dihedral angle between two l.s. planes)
 are estimated using the full covariance matrix.  The cell esds are taken
 into account individually in the estimation of esds in distances, angles
 and torsion angles; correlations between esds in cell parameters are only
 used when they are defined by crystal symmetry.  An approximate (isotropic)
 treatment of cell esds is used for estimating esds involving l.s. planes.
;
loop_
  _geom_bond_atom_site_label_1
  _geom_bond_atom_site_label_2
  _geom_bond_distance
  _geom_bond_site_symmetry_2
  _geom_bond_publ_flag
 Cl1 C2 1.720(3) . ?
 F1 C14 1.326(4) . ?
 F2 C14 1.321(4) . ?
 F3 C14 1.314(4) . ?
 N1 C1 1.394(4) . ?
 N1 C5 1.371(4) . ?
 N1 C6 1.378(4) . ?
 N2 C1 1.318(4) . ?
 N2 C7 1.377(4) . ?
 C1 C2 1.416(4) . ?
 C2 C3 1.356(4) . ?
 C3 H3 0.9500 . ?
 C3 C4 1.418(4) . ?
 C4 C5 1.349(4) . ?
 C4 C14 1.498(4) . ?
 C5 H5 0.9500 . ?
 C6 H6 0.9500 . ?
 C6 C7 1.373(4) . ?
 C7 C8 1.461(4) . ?
 C8 C9 1.389(4) . ?
 C8 C13 1.396(4) . ?
 C9 H9 0.9500 . ?
 C9 C10 1.400(4) . ?
 C10 H10 0.9500 . ?
 C10 C11 1.384(5) . ?
 C11 H11 0.9500 . ?
 C11 C12 1.379(6) . ?
 C12 H12 0.9500 . ?
 C12 C13 1.396(5) . ?
 C13 H13 0.9500 . ?

loop_
  _geom_angle_atom_site_label_1
  _geom_angle_atom_site_label_2
  _geom_angle_atom_site_label_3
  _geom_angle
  _geom_angle_site_symmetry_1
  _geom_angle_site_symmetry_3
  _geom_angle_publ_flag
 C5 N1 C1 123.1(2) . . ?
 C5 N1 C6 130.5(2) . . ?
 C6 N1 C1 106.3(2) . . ?
 C1 N2 C7 105.4(2) . . ?
 N1 C1 C2 116.8(2) . . ?
 N2 C1 N1 111.5(2) . . ?
 N2 C1 C2 131.7(3) . . ?
 C1 C2 Cl1 117.5(2) . . ?
 C3 C2 Cl1 121.5(2) . . ?
 C3 C2 C1 121.1(3) . . ?
 C2 C3 H3 120.5 . . ?
 C2 C3 C4 119.0(3) . . ?
 C4 C3 H3 120.5 . . ?
 C3 C4 C14 118.9(3) . . ?
 C5 C4 C3 121.6(3) . . ?
 C5 C4 C14 119.2(3) . . ?
 N1 C5 H5 120.8 . . ?
 C4 C5 N1 118.5(3) . . ?
 C4 C5 H5 120.8 . . ?
 N1 C6 H6 127.1 . . ?
 C7 C6 N1 105.8(2) . . ?
 C7 C6 H6 127.1 . . ?
 N2 C7 C8 120.3(3) . . ?
 C6 C7 N2 111.0(2) . . ?
 C6 C7 C8 128.7(3) . . ?
 C9 C8 C7 120.5(3) . . ?
 C9 C8 C13 118.3(3) . . ?
 C13 C8 C7 121.2(3) . . ?
 C8 C9 H9 119.3 . . ?
 C8 C9 C10 121.3(3) . . ?
 C10 C9 H9 119.3 . . ?
 C9 C10 H10 120.4 . . ?
 C11 C10 C9 119.3(3) . . ?
 C11 C10 H10 120.4 . . ?
 C10 C11 H11 119.8 . . ?
 C12 C11 C10 120.4(3) . . ?
 C12 C11 H11 119.8 . . ?
 C11 C12 H12 120.0 . . ?
 C11 C12 C13 120.1(3) . . ?
 C13 C12 H12 120.0 . . ?
 C8 C13 H13 119.7 . . ?
 C12 C13 C8 120.6(3) . . ?
 C12 C13 H13 119.7 . . ?
 F1 C14 C4 111.4(3) . . ?
 F2 C14 F1 106.7(3) . . ?
 F2 C14 C4 113.1(3) . . ?
 F3 C14 F1 105.8(3) . . ?
 F3 C14 F2 106.3(3) . . ?
 F3 C14 C4 113.0(3) . . ?

loop_
  _geom_torsion_atom_site_label_1
  _geom_torsion_atom_site_label_2
  _geom_torsion_atom_site_label_3
  _geom_torsion_atom_site_label_4
  _geom_torsion
  _geom_torsion_site_symmetry_1
  _geom_torsion_site_symmetry_2
  _geom_torsion_site_symmetry_3
  _geom_torsion_site_symmetry_4
  _geom_torsion_publ_flag
 Cl1 C2 C3 C4 -179.9(2) . . . . ?
 N1 C1 C2 Cl1 -179.69(19) . . . . ?
 N1 C1 C2 C3 0.8(4) . . . . ?
 N1 C6 C7 N2 0.1(3) . . . . ?
 N1 C6 C7 C8 178.9(3) . . . . ?
 N2 C1 C2 Cl1 2.7(4) . . . . ?
 N2 C1 C2 C3 -176.9(3) . . . . ?
 N2 C7 C8 C9 4.5(4) . . . . ?
 N2 C7 C8 C13 -174.4(3) . . . . ?
 C1 N1 C5 C4 1.1(4) . . . . ?
 C1 N1 C6 C7 -0.4(3) . . . . ?
 C1 N2 C7 C6 0.2(3) . . . . ?
 C1 N2 C7 C8 -178.7(2) . . . . ?
 C1 C2 C3 C4 -0.4(4) . . . . ?
 C2 C3 C4 C5 0.4(4) . . . . ?
 C2 C3 C4 C14 174.4(3) . . . . ?
 C3 C4 C5 N1 -0.7(4) . . . . ?
 C3 C4 C14 F1 -75.7(4) . . . . ?
 C3 C4 C14 F2 44.5(4) . . . . ?
 C3 C4 C14 F3 165.4(3) . . . . ?
 C5 N1 C1 N2 177.0(2) . . . . ?
 C5 N1 C1 C2 -1.1(4) . . . . ?
 C5 N1 C6 C7 -176.5(3) . . . . ?
 C5 C4 C14 F1 98.4(4) . . . . ?
 C5 C4 C14 F2 -141.4(3) . . . . ?
 C5 C4 C14 F3 -20.5(4) . . . . ?
 C6 N1 C1 N2 0.5(3) . . . . ?
 C6 N1 C1 C2 -177.6(2) . . . . ?
 C6 N1 C5 C4 176.6(3) . . . . ?
 C6 C7 C8 C9 -174.2(3) . . . . ?
 C6 C7 C8 C13 6.9(5) . . . . ?
 C7 N2 C1 N1 -0.4(3) . . . . ?
 C7 N2 C1 C2 177.3(3) . . . . ?
 C7 C8 C9 C10 -178.2(3) . . . . ?
 C7 C8 C13 C12 178.2(3) . . . . ?
 C8 C9 C10 C11 -0.4(5) . . . . ?
 C9 C8 C13 C12 -0.7(5) . . . . ?
 C9 C10 C11 C12 0.0(5) . . . . ?
 C10 C11 C12 C13 0.0(5) . . . . ?
 C11 C12 C13 C8 0.4(5) . . . . ?
 C13 C8 C9 C10 0.7(5) . . . . ?
 C14 C4 C5 N1 -174.7(3) . . . . ?

_shelx_res_file
;
TITL sg-v3551-15-19_a.res in P2(1)/c
    sg-v3551-15-19.res
    created by SHELXL-2018/3 at 15:57:04 on 19-Jan-2022
REM Old TITL SG-V3551-15-19, 150K, GA-JET
REM SHELXT solution in P2(1)/c: R1 0.193, Rweak 0.009, Alpha 0.042
REM <I/s> 0.000 for 0 systematic absences, Orientation as input
REM Formula found by SHELXT: C14 N2 F3 Cl
CELL 1.34143 10.6224 15.1386 8.1382 90 108.692 90
ZERR 4 0.0012 0.0019 0.0009 0 0.008 0
LATT 1
SYMM -X,0.5+Y,0.5-Z
SFAC C H Cl F N
DISP C 0.015 0.007 57.748
DISP Cl 0.329 0.54 4086.178
DISP F 0.06 0.041 317.629
DISP H 0 0 0.6
DISP N 0.025 0.014 110.512
UNIT 56 32 4 12 8

L.S. 4 0 0
PLAN  20
TEMP -123.15
CONF
list 4
MORE -1
BOND $H
fmap 2 53
acta
OMIT -1 6 2
REM <olex2.extras>
REM <HklSrc "%.\\SG-V3551-15-19.hkl">
REM </olex2.extras>

WGHT    0.200000
FVAR       0.45544
CL1   3    0.860475    0.491628    0.722734    11.00000    0.05321    0.05405 =
         0.03919    0.00824    0.01501    0.01199
F1    4    0.879483    0.727753    0.205048    11.00000    0.15682    0.11308 =
         0.09046   -0.03451    0.07650   -0.08787
F2    4    0.860940    0.599457    0.093992    11.00000    0.10065    0.06462 =
         0.06525    0.02424    0.05127    0.03063
F3    4    0.704887    0.691685    0.006224    11.00000    0.09132    0.08393 =
         0.06817    0.04240    0.04469    0.02895
N1    5    0.569368    0.634913    0.408965    11.00000    0.04775    0.02437 =
         0.03864    0.00144    0.01597    0.00022
N2    5    0.578583    0.573741    0.663488    11.00000    0.04831    0.03007 =
         0.03799   -0.00111    0.01689    0.00053
C1    1    0.642340    0.583890    0.549982    11.00000    0.05063    0.02328 =
         0.03550    0.00072    0.01533   -0.00074
C2    1    0.769264    0.555105    0.550392    11.00000    0.04924    0.03099 =
         0.03780   -0.00187    0.01431   -0.00035
C3    1    0.817089    0.577400    0.420195    11.00000    0.04834    0.03023 =
         0.03985   -0.00155    0.01601   -0.00162
AFIX  43
H3    2    0.902598    0.558092    0.421921    11.00000   -1.20000
AFIX   0
C4    1    0.737506    0.629973    0.281447    11.00000    0.05562    0.02505 =
         0.03760   -0.00083    0.01860   -0.00344
C5    1    0.616091    0.658585    0.276551    11.00000    0.05632    0.02689 =
         0.03525    0.00226    0.01649   -0.00301
AFIX  43
H5    2    0.564173    0.694312    0.183493    11.00000   -1.20000
AFIX   0
C6    1    0.453532    0.657859    0.440237    11.00000    0.04634    0.02646 =
         0.03997    0.00030    0.01384    0.00093
AFIX  43
H6    2    0.382919    0.692858    0.368680    11.00000   -1.20000
AFIX   0
C7    1    0.461339    0.619646    0.596256    11.00000    0.04582    0.02510 =
         0.04004   -0.00081    0.01467   -0.00037
C8    1    0.366115    0.624075    0.691686    11.00000    0.04977    0.02654 =
         0.04495   -0.00649    0.01893   -0.00189
C9    1    0.396598    0.587347    0.856269    11.00000    0.05226    0.03219 =
         0.04358   -0.00265    0.01916   -0.00202
AFIX  43
H9    2    0.481124    0.560761    0.907720    11.00000   -1.20000
AFIX   0
C10   1    0.305314    0.588718    0.947815    11.00000    0.06345    0.04388 =
         0.04857   -0.00648    0.02932   -0.00574
AFIX  43
H10   2    0.327416    0.563007    1.059981    11.00000   -1.20000
AFIX   0
C11   1    0.182524    0.627926    0.873191    11.00000    0.06091    0.04844 =
         0.05873   -0.01246    0.03189   -0.00359
AFIX  43
H11   2    0.120002    0.629152    0.934478    11.00000   -1.20000
AFIX   0
C12   1    0.150388    0.665242    0.710310    11.00000    0.05074    0.04452 =
         0.06959   -0.00852    0.02417    0.00487
AFIX  43
H12   2    0.065903    0.692040    0.659792    11.00000   -1.20000
AFIX   0
C13   1    0.241840    0.663685    0.619593    11.00000    0.05295    0.03443 =
         0.04992   -0.00418    0.01756    0.00401
AFIX  43
H13   2    0.219314    0.689820    0.507761    11.00000   -1.20000
AFIX   0
C14   1    0.795178    0.661609    0.146359    11.00000    0.06183    0.03470 =
         0.04768    0.00526    0.02559   -0.00127
HKLF 4




REM  sg-v3551-15-19_a.res in P2(1)/c
REM wR2 = 0.2756, GooF = S = 1.159, Restrained GooF = 1.159 for all data
REM R1 = 0.0960 for 2314 Fo > 4sig(Fo) and 0.1056 for all 2902 data
REM 181 parameters refined using 0 restraints

END

WGHT      0.2000      0.0000

REM Highest difference peak  1.439,  deepest hole -0.808,  1-sigma level  0.140
Q1    1   0.9470  0.4945  0.7430  11.00000  0.05    1.44
Q2    1   0.7736  0.4920  0.7034  11.00000  0.05    1.42
Q3    1   0.5383  0.6585  0.4556  11.00000  0.05    0.58
Q4    1   0.7665  0.5979  0.0526  11.00000  0.05    0.57
Q5    1   0.3123  0.6420  0.6637  11.00000  0.05    0.56
Q6    1   0.2311  0.6637  0.7442  11.00000  0.05    0.54
Q7    1   0.6515  0.6343  0.4274  11.00000  0.05    0.54
Q8    1   0.3846  0.6177  0.5744  11.00000  0.05    0.53
Q9    1   0.5025  0.5833  0.6335  11.00000  0.05    0.53
Q10   1   0.3785  0.5867  0.9621  11.00000  0.05    0.48
Q11   1   0.4799  0.6255  0.3791  11.00000  0.05    0.48
Q12   1   0.9213  0.6441  0.1654  11.00000  0.05    0.48
Q13   1   0.3192  0.5830  0.8505  11.00000  0.05    0.47
Q14   1   0.5349  0.6209  0.6131  11.00000  0.05    0.46
Q15   1   0.5429  0.5933  0.5217  11.00000  0.05    0.46
Q16   1   0.7171  0.5789  0.5610  11.00000  0.05    0.46
Q17   1   0.3646  0.6527  0.4155  11.00000  0.05    0.45
Q18   1   0.4545  0.6216  0.7195  11.00000  0.05    0.45
Q19   1   0.2651  0.6363  0.8735  11.00000  0.05    0.45
Q20   1   0.9875  0.7047  0.2176  11.00000  0.05    0.45
;
_shelx_res_checksum               8498
_shelx_hkl_file
;
  -4   0  -4   16.37    0.66   0
  -4   1  -5  145.59    1.66   0
  -4   3  -2   21.15    0.57   0
  -3   1  -7   34.22    1.04   0
  -3   6  -7    8.94    0.83   0
  -2   7  -8    0.28    0.67   0
  -4   1  -3  212.83    1.59   0
  -4   2  -5    2.69    0.68   0
  -4   5  -5   36.86    1.06   0
  -4   6  -4  223.21    1.94   0
  -4   6  -3    5.92    0.54   0
  -3   2  -7    4.51    0.74   0
  -3   8  -2    8.80    0.50   0
   0  -2  -9    6.67    0.76   0
   0   9  -9   15.54    0.71   0
  -4   1  -4    2.40    0.39   0
  -4   3  -5    0.85    0.47   0
  -4   4  -5    1.05    0.51   0
  -4   4  -3   36.44    0.80   0
  -4   5  -4    0.52    0.58   0
  -4   5  -3    0.98    0.47   0
  -3  -2  -5   20.49    0.75   0
  -3  -1  -6    5.23    0.67   0
  -3   3  -7    2.27    0.69   0
  -3   4  -7    3.24    0.74   0
  -2  -2  -7   10.11    0.77   0
  -2   1  -8    0.17    0.66   0
  -2   6  -8   32.19    1.00   0
  -2   9  -7    0.25    0.68   0
  -2  11  -5   16.45    0.80   0
  -1   2  -9    3.00    0.64   0
  -1   3  -9   10.22    0.80   0
  -1   4  -9   10.64    0.71   0
  -1   5  -9    1.75    0.61   0
  -1   9  -8    0.19    0.73   0
  -1  11  -7   11.07    0.80   0
   0  11  -8    1.07    0.63   0
  -4   2  -4    0.54    0.38   0
  -4   4  -4   84.19    1.24   0
  -3   7  -6    0.27    0.71   0
  -3   9  -4    0.25    0.55   0
  -2  -4  -5    3.65    0.57   0
  -2  -4  -4   78.17    1.02   0
  -2   4  -8   -0.13    0.66   0
  -2  10  -6   12.05    0.83   0
  -1  -2  -8    7.51    0.75   0
   0  12  -7    1.31    0.77   0
   1   0 -10    0.55    0.53   0
   1  12  -8    1.19    0.64   0
  -3   0  -6   85.89    1.33   0
  -3   7  -2   97.59    1.02   0
  -3   8  -5    0.71    0.64   0
  -2  -3  -6    5.32    0.66   0
  -2   8  -7    6.09    0.78   0
   0  -1  -9   10.65    0.80   0
   0   8  -9    1.39    0.59   0
   1   1 -10    0.41    0.58   0
  -3  -1  -5   10.19    0.63   0
  -1   8  -8    6.21    0.73   0
   1   5 -10    0.70    0.48   0
  -3  -1  -4   74.33    0.97   0
  -3   2  -6   29.03    0.95   0
  -3   3  -6    3.25    0.70   0
  -3   7  -5    0.46    0.62   0
  -1  -3  -7  164.17    1.72   0
  -1  -1  -8    1.65    0.67   0
  -1  11  -6   16.38    0.83   0
   0   7  -9   76.37    1.22   0
   1   3 -10    0.10    0.51   0
   1   4 -10    7.60    0.58   0
  -2  -3  -5   41.44    0.84   0
  -2  -2  -6  127.93    1.45   0
  -1   7  -8   -0.28    0.66   0
   0  -3  -8   11.11    0.76   0
   1   9  -9    1.30    0.56   0
   2  -1 -10   -0.25    0.54   0
  -3   1  -5   10.54    0.64   0
  -3   6  -5    0.28    0.62   0
  -3   7  -4    9.72    0.62   0
  -2   1  -7    0.17    0.68   0
  -2   6  -7    1.49    0.71   0
  -1  -4  -6   40.35    0.91   0
   0  12  -6    2.69    0.80   0
   1  -2  -9    6.88    0.76   0
   1  11  -8   41.46    0.98   0
  -3   0  -4   10.58    0.44   0
  -3   2  -5   19.36    0.75   0
  -3   5  -5   56.03    1.11   0
  -3   6  -3   14.14    0.55   0
  -2  -3  -4    7.25    0.46   0
  -2   4  -7   -0.05    0.68   0
  -1   6  -8    3.51    0.70   0
  -1   9  -7   35.14    1.05   0
  -1  11  -5   11.79    0.73   0
   0   3  -9    3.15    0.63   0
   0   4  -9   15.72    0.78   0
   0   5  -9   20.63    0.83   0
   0   9  -8   13.98    0.81   0
   2   0 -10   22.13    0.72   0
   2  12  -8    3.84    0.64   0
  -3   1  -4   76.09    1.00   0
  -3   1  -3   80.75    0.91   0
  -3   3  -5    5.87    0.62   0
  -3   6  -4    1.01    0.50   0
  -2  -1  -6    0.94    0.59   0
  -2   9  -3    7.55    0.48   0
  -1   2  -8    7.86    0.76   0
  -1   3  -8    4.09    0.71   0
  -1  10  -6    3.07    0.69   0
   0  -2  -8    2.88    0.75   0
   1   8  -9    0.67    0.60   0
   1  12  -7   40.77    1.00   0
   2   6 -10   30.01    0.78   0
  -3   2  -4  184.38    1.51   0
  -3   4  -4  349.71    2.13   0
  -3   4  -3   96.30    1.04   0
  -3   5  -4   19.89    0.69   0
  -3   5  -3   35.17    0.70   0
  -2  -2  -5   21.80    0.67   0
  -2   7  -6    0.24    0.67   0
  -2   9  -4   17.75    0.68   0
  -1   8  -7    0.68    0.68   0
   1  -1  -9    2.17    0.63   0
   2   1 -10   -0.08    0.53   0
   2   5 -10    0.19    0.49   0
  -3   3  -3   18.94    0.55   0
  -2   0  -6   18.10    0.75   0
  -2   6  -6    0.54    0.64   0
  -2   8  -5   12.52    0.72   0
  -1  -4  -5   12.06    0.56   0
  -1  -3  -6    4.43    0.59   0
   0   8  -8    5.85    0.74   0
   1   7  -9    1.93    0.60   0
   2   2 -10   10.33    0.63   0
   2   3 -10    1.29    0.54   0
   2   4 -10   19.01    0.70   0
  -2  -2  -4   32.87    0.64   0
  -2  -1  -5    3.32    0.48   0
  -2   1  -6    0.61    0.58   0
  -2   5  -6    0.82    0.62   0
  -1   7  -7    8.63    0.79   0
  -1  10  -5    0.17    0.68   0
   0  -1  -8    8.20    0.73   0
   0  11  -6   -0.08    0.66   0
   2   9  -9    0.03    0.59   0
   3  -1 -10    0.48    0.53   0
  -2   2  -6  125.90    1.50   0
  -2   3  -6    5.48    0.68   0
  -2   7  -5    2.74    0.60   0
  -2   8  -3  128.05    1.12   0
   0  -3  -7    6.71    0.76   0
   0   7  -8   18.17    0.87   0
   2  11  -8    7.93    0.72   0
   3   7 -10    1.09    0.49   0
   3  12  -8    0.14    0.63   0
  -1  -2  -6    0.63    0.61   0
  -1   6  -7    0.34    0.68   0
   0   9  -7    0.41    0.79   0
   1   1  -9    2.44    0.62   0
   1   5  -9   40.88    1.01   0
   1  11  -7    2.10    0.71   0
   1  12  -6   73.66    1.20   0
   2  -2  -9    1.56    0.61   0
   3   0 -10   24.48    0.75   0
   3   6 -10    1.27    0.57   0
  -2  -1  -4    5.43    0.42   0
  -2   6  -5   17.32    0.76   0
  -2   7  -4    0.41    0.46   0
  -1   1  -7    1.66    0.60   0
  -1   2  -7    5.65    0.68   0
  -1   8  -6    2.08    0.68   0
   0  -4  -6    8.20    0.69   0
   1   3  -9   13.78    0.76   0
   1   4  -9    7.65    0.68   0
   2   8  -9   33.59    0.91   0
   2  12  -7    7.56    0.73   0
   3   1 -10    0.64    0.59   0
  -2   5  -5  154.62    1.56   0
  -2   7  -3   39.69    0.68   0
  -1   3  -7  151.92    1.72   0
   0  11  -5   18.96    0.76   0
   3   2 -10   15.74    0.67   0
   3   4 -10   -0.32    0.48   0
   3   5 -10    3.78    0.54   0
  -2   0  -4  427.56    1.95   0
  -2   2  -5   22.40    0.70   0
  -2   3  -5   41.74    0.89   0
  -2   6  -4   10.63    0.55   0
  -1   7  -6   12.80    0.77   0
   0   8  -7    6.70    0.75   0
   1   8  -8   62.99    1.22   0
   2  -1  -9    3.57    0.64   0
   3   3 -10    0.51    0.51   0
   3   9  -9   21.41    0.78   0
   4  -1 -10    6.98    0.59   0
   4   7 -10   12.40    0.59   0
  -2   6  -3   19.16    0.52   0
  -1   9  -4   27.34    0.70   0
   3  11  -8    2.82    0.67   0
   4  12  -8    0.72    0.50   0
   4  12  -8    0.35    0.33   0
  -2   1  -4    5.04    0.42   0
  -2   5  -4    7.08    0.50   0
  -1  -2  -5   81.66    0.96   0
  -1   0  -6    6.88    0.59   0
  -1   6  -6    8.91    0.73   0
  -1   8  -5   15.01    0.72   0
   0   7  -7  156.71    1.79   0
   1   7  -8    3.74    0.69   0
   1  11  -6   20.59    0.84   0
   4   0 -10    0.69    0.53   0
   4   6 -10    0.04    0.49   0
  -1   1  -6    5.86    0.59   0
  -1   5  -6   10.56    0.72   0
   0  -3  -6    5.96    0.54   0
   0  10  -5    9.17    0.67   0
   2   1  -9    3.87    0.62   0
   2   5  -9    2.43    0.63   0
   2   9  -8   11.90    0.79   0
   2  11  -7    6.22    0.73   0
   2  12  -6    0.11    0.78   0
   3  -2  -9    3.11    0.69   0
   3   8  -9   28.39    0.86   0
   3  12  -7    0.64    0.78   0
  -2   3  -3  274.64    1.50   0
  -2   4  -3   12.64    0.40   0
  -1   2  -6    0.18    0.54   0
   0  -4  -5    5.94    0.46   0
   1   9  -7   10.91    0.81   0
   2   2  -9    0.84    0.58   0
   2   3  -9    2.80    0.63   0
   2   4  -9    0.80    0.59   0
   4   1 -10    8.54    0.60   0
   4   2 -10    5.46    0.64   0
   4   4 -10    0.86    0.48   0
   4   5 -10    0.98    0.49   0
   5   7 -10    1.17    0.53   0
  -1  -1  -5  272.89    1.65   0
   0   1  -7  324.37    2.23   0
   0   8  -6   81.99    1.29   0
   0  10  -4   42.37    0.84   0
   1  -3  -7   41.05    0.88   0
   3   7  -9   43.88    1.00   0
   4   3 -10    2.55    0.52   0
   4   9  -9    3.45    0.61   0
   5  -1 -10    0.54    0.51   0
  -1   6  -5   10.94    0.63   0
   0  -2  -6   95.25    1.10   0
   0   2  -7   50.27    1.04   0
   0   3  -7    7.38    0.71   0
   0   4  -7   59.96    1.17   0
   1   2  -8   38.65    0.99   0
   1   4  -8   73.26    1.27   0
   1  11  -5    0.26    0.58   0
   2   8  -8   40.89    1.06   0
   3  -1  -9   39.71    0.92   0
   4  11  -8    1.68    0.66   0
   5   6 -10    7.26    0.63   0
  -1   7  -4    0.23    0.41   0
   0   9  -5   47.22    0.95   0
   1   8  -7    1.52    0.68   0
   2  -2  -8  155.75    1.54   0
   5   0 -10    9.01    0.59   0
  -1   1  -5  281.89    1.74   0
  -1   5  -5   57.50    0.96   0
   1  -2  -7   53.77    0.96   0
   2   7  -8    0.78    0.66   0
   2  11  -6    0.84    0.75   0
   3   5  -9   44.24    1.01   0
   3  11  -7    1.68    0.68   0
   4   8  -9   12.61    0.72   0
   4  12  -7   27.83    0.90   0
   5   1 -10    0.74    0.50   0
   5   5 -10    5.05    0.54   0
  -1   2  -5   78.44    1.01   0
  -1   3  -5   20.50    0.66   0
  -1   4  -5   13.90    0.60   0
   1   7  -7    0.94    0.68   0
   3   1  -9   39.74    0.94   0
   3   2  -9    3.02    0.60   0
   3   4  -9   36.58    0.95   0
   3   9  -8    7.45    0.73   0
   3  12  -6    2.00    0.68   0
   4  -2  -9    7.15    0.64   0
   5   2 -10   22.47    0.70   0
   5   3 -10   -0.03    0.50   0
   5   4 -10    4.82    0.53   0
   5   9  -9    8.82    0.66   0
   6  -1 -10   10.46    0.59   0
   0   6  -6    4.89    0.61   0
   1   9  -6    0.50    0.65   0
   2   6  -8   34.43    1.00   0
   3   3  -9    2.85    0.61   0
   4   7  -9   59.55    1.10   0
   5  11  -8   25.96    0.86   0
  -1   0  -4  177.79    1.18   0
  -1   5  -4   18.28    0.55   0
  -1   6  -3    5.78    0.38   0
   0   0  -6  141.66    1.34   0
   0   5  -6   68.09    1.13   0
   0   9  -3    2.18    0.36   0
   1   6  -7    5.06    0.68   0
   1  10  -5   39.37    0.90   0
   2   0  -8  224.50    1.87   0
   3  -3  -8    0.21    0.59   0
   3   8  -8   11.05    0.76   0
   6   0 -10   12.79    0.61   0
   6   5 -10    3.11    0.57   0
  -1   1  -4   86.66    0.88   0
  -1   4  -4   77.21    0.91   0
   0  -2  -5  102.09    0.98   0
   0   1  -6   -0.20    0.47   0
   0   2  -6  100.23    1.21   0
   1   5  -7    1.16    0.64   0
   2   1  -8   30.38    0.90   0
   2   4  -8   12.83    0.79   0
   4  -1  -9    5.24    0.63   0
   5  12  -7   14.82    0.88   0
   6   1 -10   10.98    0.59   0
   6   4 -10   23.74    0.70   0
   7  -1 -10   -0.33    0.51   0
  -1   2  -4   35.23    0.62   0
  -1   3  -4  133.23    1.11   0
   0   7  -5   95.68    1.19   0
   1   1  -7   35.70    0.88   0
   1   2  -7   59.08    1.06   0
   1   3  -7   46.80    1.00   0
   1   4  -7    4.59    0.64   0
   1   8  -6   30.47    0.91   0
   2  -3  -7    7.87    0.61   0
   2  10  -6    0.88    0.65   0
   2  11  -5   50.59    0.97   0
   4   5  -9  113.21    1.44   0
   4  11  -7   14.38    0.90   0
   6   2 -10   12.45    0.61   0
   6   3 -10    0.67    0.49   0
   6   9  -9    0.60    0.53   0
   6  11  -8    4.87    0.73   0
   0   8  -4    0.19    0.40   0
   1  10  -4   28.35    0.68   0
   3  -2  -8    1.83    0.60   0
   3   7  -8    2.13    0.67   0
   3  11  -6   11.30    0.85   0
   4   1  -9    5.30    0.63   0
   4   4  -9    3.27    0.62   0
   4   9  -8   28.79    0.91   0
   5  -2  -9   11.66    0.76   0
   7   0 -10    1.01    0.53   0
   7   5 -10    1.61    0.45   0
   0  -1  -5  168.01    1.23   0
   0   6  -5    3.48    0.51   0
   1   9  -5   55.52    0.99   0
   2   7  -7    4.52    0.66   0
   4   3  -9   39.66    0.95   0
   5   7  -9    1.02    0.57   0
   7   4 -10    2.26    0.53   0
   7   9  -9    9.38    0.61   0
   0   5  -5    4.49    0.49   0
   0   8  -3    2.59    0.34   0
   2  -2  -7    7.08    0.59   0
   3  -1  -8    8.22    0.65   0
   3   6  -8   17.38    0.82   0
   3   9  -7    0.94    0.66   0
   6   8  -9    0.92    0.56   0
   7   1 -10   -0.22    0.45   0
   7   2 -10   -0.01    0.46   0
   7   3 -10    1.27    0.47   0
   7  11  -8    1.00    0.61   0
   0   7  -4    1.63    0.40   0
   1   6  -6   24.13    0.80   0
   3   0  -8    2.69    0.62   0
   4  -3  -8   13.45    0.70   0
   5  -1  -9    5.36    0.62   0
   8   0 -10    0.37    0.45   0
   0   1  -5  178.47    1.32   0
   0   2  -5  109.47    1.09   0
   0   3  -5  148.47    1.29   0
   1   8  -5   14.81    0.66   0
   2  10  -5   58.50    1.02   0
   3   1  -8    7.21    0.67   0
   3   4  -8   95.19    1.39   0
   5   5  -9   11.61    0.73   0
   5  11  -7   12.13    0.80   0
   6   7  -9   -0.10    0.54   0
   8   1 -10    0.54    0.44   0
   8   2 -10    1.38    0.51   0
   8   3 -10    0.57    0.49   0
   8   4 -10    7.34    0.51   0
   0   6  -4  352.13    1.80   0
   1  -3  -5   34.39    0.60   0
   1   0  -6  124.22    1.22   0
   1   5  -6   38.58    0.89   0
   1   9  -4    5.96    0.51   0
   2   5  -7   60.14    1.13   0
   3   2  -8    1.77    0.61   0
   4   7  -8   40.02    1.03   0
   5   1  -9    5.06    0.62   0
   5   4  -9    9.82    0.69   0
   6  -2  -9    1.81    0.56   0
   7   8  -9    1.12    0.53   0
   0   7  -3   76.93    0.78   0
   1   1  -6   10.08    0.56   0
   1   3  -6  153.40    1.44   0
   2   1  -7   77.60    1.13   0
   2   3  -7    7.83    0.64   0
   2   4  -7   74.52    1.19   0
   3  -3  -7  131.31    1.32   0
   3  11  -5  189.01    1.63   0
   4  -2  -8   31.86    0.83   0
   4  11  -6   20.85    0.86   0
   5   2  -9   13.30    0.70   0
   5   3  -9   29.92    0.87   0
   6   6  -9    1.07    0.58   0
   0   5  -4   76.44    0.88   0
   1   2  -6  267.89    1.81   0
   1   7  -5    4.77    0.55   0
   2  -3  -6   11.56    0.54   0
   2   2  -7    6.97    0.62   0
   4   6  -8    2.88    0.68   0
   4   9  -7   13.58    0.81   0
   5   8  -8   37.91    1.01   0
   6  -1  -9   15.70    0.69   0
   6  11  -7   27.23    1.01   0
   7   7  -9   18.87    0.75   0
   8   8  -9    1.27    0.52   0
   2   7  -6    0.61    0.59   0
   2   9  -5  164.59    1.52   0
   2  10  -4    6.82    0.60   0
   4  -1  -8   31.76    0.85   0
   6   5  -9    4.52    0.62   0
   6   9  -8    4.87    0.68   0
   0   4  -4  746.13    2.47   0
   1  -2  -5    4.75    0.38   0
   1   6  -5  152.80    1.38   0
   1   8  -4  114.36    1.11   0
   3  -2  -7  194.57    1.55   0
   4   0  -8   41.21    0.95   0
   4   4  -8   98.60    1.39   0
   6   4  -9   -0.10    0.55   0
   7   6  -9    1.03    0.54   0
   8  10  -8    2.86    0.61   0
   0   2  -4    3.31    0.36   0
   0   3  -4   29.11    0.57   0
   2  -2  -6    2.97    0.47   0
   2   6  -6  277.14    2.01   0
   3   6  -7    2.40    0.63   0
   4   1  -8   32.31    0.89   0
   5   7  -8    1.05    0.64   0
   6   1  -9   14.80    0.69   0
   6   2  -9    1.19    0.56   0
   6   3  -9    6.94    0.65   0
   7  11  -7    0.02    0.74   0
   8   7  -9    3.97    0.54   0
   1   5  -5   22.18    0.65   0
   3   5  -7  137.29    1.56   0
   3  10  -5   75.94    1.14   0
   4  10  -6    4.97    0.71   0
   5  11  -6    0.71    0.71   0
   6   8  -8    0.49    0.63   0
   7  -1  -9   16.35    0.69   0
   7   5  -9   13.33    0.70   0
   7   9  -8    3.04    0.66   0
   9   7  -9   -0.29    0.47   0
   1   7  -4   19.76    0.58   0
   2   5  -6   92.09    1.21   0
   2   8  -5   66.36    1.03   0
   3   4  -7    1.94    0.61   0
   3   8  -6   35.13    0.93   0
   4  11  -5   63.56    1.10   0
   5   6  -8   15.25    0.79   0
   5   9  -7    4.26    0.73   0
   6  10  -7    0.65    0.70   0
   7   4  -9    0.83    0.54   0
   8  -2  -9    1.48    0.54   0
   8   6  -9    0.15    0.52   0
   1   4  -5    0.06    0.27   0
   1   8  -3  217.41    1.25   0
   2   9  -4    0.23    0.54   0
   3   1  -7   45.38    0.92   0
   3   2  -7  211.27    1.75   0
   3   3  -7  123.50    1.42   0
   4   7  -7   44.55    1.07   0
   7   1  -9   15.94    0.69   0
   7   2  -9    8.04    0.62   0
   7   3  -9   22.30    0.79   0
   8   9  -8    0.18    0.58   0
   9   6  -9    0.18    0.46   0
   9  11  -7    0.31    0.60   0
   1   1  -5    0.99    0.36   0
   1   2  -5    5.47    0.43   0
   2   0  -6  102.18    1.10   0
   2   3  -6   14.48    0.63   0
   4  -3  -7    4.29    0.56   0
   5   4  -8   17.10    0.78   0
   6  -3  -8   27.30    0.80   0
   6   7  -8   -0.04    0.59   0
   7   8  -8    1.61    0.65   0
   8  -1  -9   10.58    0.62   0
   8   5  -9    5.83    0.58   0
   9  -2  -9    0.59    0.50   0
   9   9  -8    0.31    0.56   0
   2   1  -6    0.88    0.33   0
   2   2  -6    3.08    0.49   0
   2   7  -5  500.92    2.44   0
   3   7  -6    0.63    0.59   0
   4   6  -7   18.41    0.83   0
   5   3  -8    6.62    0.68   0
   6  11  -6    7.87    0.78   0
   7  10  -7    3.27    0.72   0
   8   4  -9    0.32    0.51   0
   9   5  -9    0.93    0.49   0
   2  -3  -5   10.63    0.47   0
   3  10  -4   -0.28    0.59   0
   6   6  -8    1.21    0.63   0
   6   9  -7    0.11    0.69   0
   8   1  -9   10.60    0.64   0
   8   2  -9    1.64    0.54   0
   8   3  -9    0.89    0.51   0
   8   8  -8    3.20    0.63   0
   9   4  -9    2.62    0.58   0
  10   5  -9    9.40    0.55   0
   3   6  -6   19.36    0.75   0
   4   5  -7    2.92    0.66   0
   4  10  -5    8.98    0.71   0
   5  11  -5    2.15    0.69   0
   6  -2  -8   20.26    0.77   0
   7   7  -8   14.25    0.78   0
   8  10  -7    0.02    0.74   0
   9   3  -9    3.24    0.50   0
  10  -1  -9    0.75    0.39   0
  10  -1  -9    0.48    0.26   0
  10   4  -9    0.00    0.41   0
   2   8  -4   50.85    0.82   0
   2   9  -3   54.62    0.73   0
   4   4  -7    1.26    0.59   0
   7  -3  -8    1.00    0.67   0
   7  11  -6    6.73    0.79   0
   9   1  -9   11.71    0.62   0
   9   2  -9    0.84    0.50   0
   9   8  -8    3.47    0.60   0
   9  10  -7    1.13    0.72   0
  10   3  -9    0.54    0.44   0
   1   4  -4  755.91    2.43   0
   3  -2  -6   30.26    0.67   0
   3   8  -5   88.78    1.18   0
   4   3  -7    5.04    0.63   0
   7   6  -8    0.10    0.61   0
  10   2  -9    3.38    0.47   0
   2   5  -5   17.20    0.60   0
   4   2  -7  216.95    1.79   0
   6   1  -8   30.23    0.88   0
   6   2  -8   21.13    0.82   0
   6   3  -8   29.69    0.90   0
   6  10  -6    3.64    0.73   0
   1   3  -4   32.99    0.60   0
   2   4  -5   13.09    0.53   0
   4  -4  -6   70.73    0.95   0
   7  -2  -8    4.57    0.60   0
   8   6  -8    3.84    0.73   0
   9   7  -8    0.74    0.58   0
   9  11  -6    1.29    0.71   0
  10   7  -8    0.23    0.52   0
   3   0  -6  172.23    1.39   0
   3   1  -6   28.14    0.69   0
   3   3  -6   38.88    0.83   0
   3   7  -5   39.04    0.84   0
   4   9  -5    0.97    0.61   0
   6  11  -5    2.38    0.73   0
   7  -1  -8    0.45    0.66   0
   7   4  -8    0.29    0.60   0
   8  -3  -8    0.70    0.56   0
   8   9  -7    3.23    0.68   0
   2   1  -5  191.79    1.31   0
   2   2  -5   36.27    0.67   0
   4  10  -4    9.44    0.69   0
   5  10  -5   46.40    1.05   0
   6  -4  -7    0.43    0.54   0
   7   0  -8    0.01    0.56   0
   7   3  -8    0.37    0.60   0
   7  10  -6    5.24    0.76   0
   9   6  -8    0.64    0.57   0
   9   9  -7    3.93    0.71   0
  11   6  -8    1.28    0.47   0
   5   4  -7   -0.23    0.57   0
   7   1  -8    1.02    0.59   0
   7   2  -8    4.77    0.63   0
   8  -2  -8   27.47    0.81   0
  10   6  -8    3.54    0.55   0
   3   6  -5    3.49    0.51   0
   4  -3  -6    0.29    0.43   0
   5   1  -7   70.59    1.11   0
   5   2  -7    3.90    0.62   0
   5   3  -7   26.20    0.85   0
   7  11  -5   94.93    1.41   0
   8   4  -8    6.51    0.67   0
   8   8  -7    0.19    0.66   0
   8  10  -6   15.33    0.89   0
   3   8  -4    1.74    0.48   0
   4   5  -6   41.61    0.93   0
   4   8  -5   23.82    0.80   0
   5   7  -6   77.16    1.24   0
   6  -3  -7   38.48    0.85   0
   7   7  -7   83.37    1.39   0
   8   0  -8    3.18    0.59   0
   8   3  -8    1.23    0.60   0
   9  -2  -8   20.52    0.74   0
   9  10  -6    1.22    0.80   0
  10  10  -6    2.85    0.76   0
  11   8  -7    2.85    0.58   0
   3  -3  -5  106.69    0.93   0
   4  -2  -6   45.21    0.79   0
   5   9  -5   86.73    1.29   0
   8   1  -8    2.45    0.59   0
   8  11  -5    0.35    0.74   0
   9   4  -8   13.83    0.72   0
   9   8  -7    0.99    0.64   0
  10  -2  -8    0.20    0.51   0
  11  -2  -8   -0.09    0.47   0
  11   4  -8    0.36    0.44   0
  12  -1  -8   -0.24    0.43   0
  12   3  -8    1.24    0.42   0
   3   5  -5  129.52    1.26   0
   3   9  -3  139.43    1.15   0
   6  -2  -7    8.62    0.62   0
   6   4  -7    0.48    0.63   0
   6   8  -6   95.31    1.44   0
   7  -4  -7    2.26    0.58   0
   8   7  -7    3.09    0.70   0
   9   0  -8    6.58    0.71   0
   9   3  -8    2.73    0.60   0
  10   4  -8    0.71    0.52   0
  12   0  -8    5.17    0.49   0
  12   1  -8    0.03    0.41   0
  12   2  -8    5.10    0.49   0
   4   0  -6   10.95    0.56   0
   4   2  -6   48.67    0.88   0
   4   3  -6    0.90    0.48   0
   4   7  -5   17.93    0.71   0
   4   9  -4    2.82    0.55   0
   5   6  -6   14.47    0.76   0
   5  10  -4    0.82    0.69   0
   6   3  -7   46.89    1.03   0
   9   1  -8    2.21    0.56   0
  10  -1  -8    0.18    0.52   0
  10   2  -8    0.11    0.50   0
  10   3  -8    0.02    0.51   0
  11   2  -8   -0.29    0.45   0
  11   3  -8    1.61    0.48   0
   2   4  -4  180.84    1.24   0
   3  -2  -5   13.67    0.46   0
   3   4  -5  139.47    1.26   0
   6   2  -7   10.55    0.69   0
   7  -3  -7    4.56    0.67   0
   9   7  -7    1.47    0.66   0
  10   1  -8    0.16    0.52   0
  10   7  -7   12.86    0.75   0
  11   1  -8    5.98    0.53   0
  11   7  -7   -0.13    0.56   0
  11   9  -6    0.47    0.61   0
   5   5  -6    0.23    0.56   0
   5   8  -5   93.63    1.30   0
   6   7  -6   12.08    0.80   0
   8   6  -7   -0.70    0.66   0
  10   9  -6    0.23    0.68   0
  12   6  -7    0.75    0.50   0
   2   3  -4   95.35    0.87   0
   4   6  -5    0.68    0.50   0
   5  -3  -6  251.95    1.63   0
   6   9  -5   15.15    0.83   0
   7  -2  -7    8.30    0.62   0
   7   4  -7    3.03    0.68   0
   9   6  -7    1.24    0.63   0
  11  10  -5    0.30    0.68   0
   3   8  -3   89.34    0.94   0
   7   3  -7    4.80    0.67   0
   8   5  -7    0.63    0.67   0
   8  10  -5    5.24    0.81   0
   9  -4  -7    0.01    0.67   0
  10   6  -7    2.47    0.64   0
  11   6  -7    2.27    0.58   0
  12   5  -7    3.48    0.60   0
   3   6  -4  213.10    1.46   0
   4   8  -4   95.82    1.14   0
   5  -2  -6  173.57    1.41   0
   5   3  -6  287.01    2.01   0
   6   6  -6  136.73    1.60   0
   6  10  -4    0.67    0.66   0
   7   1  -7   12.01    0.71   0
   7   2  -7   10.77    0.70   0
   7   7  -6    1.88    0.70   0
   8   8  -6    8.21    0.80   0
   9  10  -5    1.57    0.77   0
  10  10  -5    1.04    0.74   0
  11   8  -6    3.14    0.76   0
   4   5  -5    9.70    0.58   0
   5  -1  -6   28.64    0.73   0
   5   7  -5    1.43    0.59   0
   5   9  -4    0.12    0.58   0
   6  -4  -6    2.68    0.59   0
   7   9  -5   11.26    0.83   0
   8   4  -7   22.56    0.87   0
   9   5  -7    2.91    0.66   0
   9   8  -6   13.00    0.87   0
  10   5  -7    7.29    0.69   0
  10   8  -6    5.35    0.73   0
  11   5  -7   19.92    0.79   0
   5   0  -6    5.27    0.52   0
   6   5  -6   67.08    1.18   0
   6   8  -5    7.78    0.75   0
   8   3  -7   27.82    0.93   0
   9  -3  -7    0.62    0.56   0
   9   4  -7   -0.07    0.62   0
  12   7  -6    1.29    0.58   0
   3   5  -4    8.32    0.46   0
   4  -3  -5    7.14    0.43   0
   4   4  -5  120.74    1.23   0
   7   6  -6    6.02    0.72   0
   8   7  -6    0.95    0.70   0
  10  -3  -7   10.80    0.69   0
  10   4  -7    0.37    0.61   0
  11  -3  -7   13.16    0.68   0
  11   9  -5    0.85    0.77   0
  12  -2  -7    1.51    0.51   0
  12   3  -7    1.50    0.50   0
   4   7  -4   27.35    0.71   0
   7  10  -4    0.63    0.72   0
   8   9  -5    5.34    0.81   0
   9  -2  -7    6.60    0.64   0
   9   3  -7    0.45    0.61   0
   9   7  -6    0.13    0.68   0
  11  -2  -7    5.62    0.67   0
  11   3  -7   13.27    0.71   0
  11   7  -6    2.11    0.66   0
  12  -1  -7    0.38    0.50   0
  12   1  -7    0.06    0.54   0
  12   2  -7    1.39    0.49   0
   3   4  -4  302.72    1.64   0
   4  -2  -5    6.41    0.43   0
   6   3  -6    2.91    0.59   0
   7   8  -5   13.19    0.95   0
   9   1  -7    3.16    0.62   0
   9   9  -5    2.87    0.79   0
  10  -2  -7    0.01    0.57   0
  10   2  -7   -0.40    0.55   0
  10   3  -7    8.93    0.69   0
  10   7  -6    2.79    0.72   0
  10   9  -5    4.23    0.79   0
  11   2  -7    5.89    0.63   0
  12   6  -6    0.97    0.57   0
  12   8  -5    7.24    0.77   0
  13   5  -6   -0.21    0.48   0
   4  -1  -5  177.04    1.28   0
   6  -2  -6   33.03    0.78   0
   6   7  -5  190.89    1.81   0
   6   9  -4    0.76    0.66   0
   7   5  -6   46.13    1.09   0
   8  10  -4    4.88    0.83   0
  10  10  -4   -0.12    0.78   0
  11   1  -7    3.31    0.56   0
   3   3  -4  216.39    1.36   0
   5   5  -5   23.69    0.74   0
   6  -1  -6    4.79    0.54   0
   6   1  -6    4.98    0.58   0
   9   6  -6   14.86    0.87   0
   9  10  -4   28.27    1.05   0
  11   6  -6   20.17    0.87   0
  13   4  -6    2.54    0.52   0
   4   8  -3   72.39    0.95   0
   7  -3  -6   51.30    0.99   0
   8   5  -6   66.63    1.28   0
  10   6  -6   -0.10    0.67   0
  12   5  -6    0.68    0.58   0
  13  -3  -6   -0.19    0.55   0
   5   9  -3   32.44    0.81   0
   7   3  -6   54.77    1.09   0
   7   7  -5   12.83    0.80   0
   9   8  -5    9.88    0.87   0
  10   8  -5    2.96    0.80   0
  12  -4  -6    1.94    0.67   0
  12   7  -5    4.27    0.76   0
  13   3  -6    0.25    0.49   0
  13   6  -5   -0.04    0.50   0
   5   7  -4   12.24    0.64   0
   6   8  -4   68.34    1.26   0
   7  -2  -6   18.10    0.71   0
   7   2  -6   19.54    0.77   0
   8  -4  -6   79.59    1.14   0
   9   5  -6    9.40    0.77   0
  10   5  -6    1.96    0.68   0
  11   5  -6    3.91    0.66   0
  11   9  -4    1.37    0.77   0
  12   4  -6    2.53    0.62   0
  13  -2  -6    1.74    0.54   0
  13   2  -6    2.22    0.53   0
   4   5  -4    1.77    0.42   0
   5  -3  -5    0.50    0.40   0
   7  -1  -6   16.91    0.70   0
   7   0  -6   32.32    0.86   0
   7  10  -3    1.94    0.74   0
   8   7  -5   12.24    0.96   0
  11  -4  -6    4.20    0.73   0
  13   0  -6    1.08    0.52   0
  13   1  -6    2.19    0.52   0
   5  -2  -5   -0.15    0.39   0
   5   2  -5    0.43    0.43   0
   6   5  -5  202.65    1.78   0
   7   6  -5    2.70    0.68   0
   8  -3  -6    5.09    0.61   0
   8   3  -6    5.46    0.68   0
   9   9  -4    2.39    0.84   0
  10  -4  -6    1.47    0.61   0
  10   9  -4    0.31    0.79   0
  11   7  -5    0.39    0.70   0
  12  -3  -6   -0.06    0.56   0
  12   3  -6   -0.60    0.55   0
  12   8  -4   11.27    0.79   0
  13   5  -5    6.08    0.60   0
  13   7  -4   -0.05    0.52   0
   5  -1  -5   38.12    0.72   0
   5   1  -5   40.23    0.77   0
   8  -2  -6   17.22    0.73   0
   8   2  -6   17.47    0.79   0
   8  10  -3    0.19    0.81   0
   9   7  -5    2.64    0.77   0
   9  10  -3    2.91    0.88   0
  10   7  -5    4.96    0.81   0
  11   3  -6    1.31    0.61   0
  12   2  -6   24.02    0.82   0
  12   6  -5    5.79    0.72   0
   4   4  -4   28.44    0.59   0
   8  -1  -6    0.83    0.57   0
   8   0  -6    0.80    0.57   0
   8   1  -6    0.46    0.57   0
   9  -3  -6    1.67    0.59   0
  10  -3  -6    1.57    0.62   0
  10   3  -6    1.20    0.66   0
  11  -3  -6    1.45    0.59   0
  12   0  -6   18.15    0.76   0
  12   1  -6    0.97    0.56   0
   6  -4  -5   80.21    0.98   0
   7   5  -5    1.20    0.62   0
   9   1  -6    6.37    0.69   0
  10   2  -6    0.19    0.64   0
  11  -2  -6    5.49    0.66   0
  11  -1  -6    2.60    0.69   0
  11   1  -6    2.17    0.59   0
  11   6  -5    0.70    0.70   0
  11   8  -4   18.11    0.97   0
  11   9  -3    0.11    0.89   0
  13  -4  -5    0.29    0.66   0
  13   4  -5    0.76    0.56   0
   4   3  -4   57.56    0.81   0
   9   0  -6   54.95    1.10   0
  10  -1  -6   -0.26    0.59   0
  10   0  -6   -0.02    0.59   0
  10   1  -6    0.96    0.60   0
  10   6  -5    0.12    0.73   0
  11   0  -6    3.19    0.60   0
  12   5  -5    1.70    0.66   0
   4   8  -2    5.24    0.46   0
   5   5  -4    6.56    0.54   0
   6  -3  -5   20.13    0.64   0
   7   4  -5    7.52    0.67   0
   7   9  -3   21.60    0.92   0
   8   5  -5   13.53    0.81   0
  12   8  -3    1.27    0.69   0
  13  -3  -5    4.64    0.71   0
  13   7  -3   12.45    0.65   0
   4   2  -4  102.46    1.00   0
   4   6  -3  307.23    1.71   0
   6   1  -5   15.44    0.63   0
   6   6  -4    4.18    0.59   0
  11   5  -5    0.56    0.70   0
  12   4  -5    2.63    0.70   0
  13   2  -5    2.58    0.58   0
   6  -1  -5   13.85    0.58   0
   7  -4  -5    7.94    0.59   0
   8  -5  -5   11.72    0.76   0
   8   9  -3    7.40    0.86   0
   9   5  -5    0.33    0.69   0
   9   9  -3   13.42    0.99   0
  10   5  -5   58.62    1.29   0
  11   7  -4    4.52    0.83   0
  13  -1  -5    6.94    0.64   0
  13   1  -5    7.31    0.67   0
  13   5  -4   -0.19    0.59   0
   5   4  -4  357.78    2.02   0
   5   7  -3    1.49    0.48   0
   8   4  -5   25.03    0.91   0
  11  -5  -5    0.42    0.66   0
  11   4  -5    2.00    0.72   0
  12  -4  -5    2.65    0.67   0
  12   6  -4    9.76    0.80   0
   7  -3  -5  204.55    1.61   0
   7   2  -5  121.83    1.43   0
   9  -5  -5    0.10    0.59   0
   9   4  -5    1.06    0.68   0
   9   7  -4    5.61    0.85   0
  10   4  -5    0.17    0.72   0
  12  -3  -5    3.81    0.65   0
  12   2  -5   14.94    0.81   0
  13   4  -4    7.86    0.69   0
  14  -1  -4    0.18    0.65   0
  14   0  -4    0.15    0.64   0
  14   1  -4    0.59    0.56   0
   5   3  -4    1.38    0.43   0
   6   5  -4    5.09    0.58   0
   6   9  -2    1.18    0.63   0
   7   6  -4  129.32    1.56   0
   7   8  -3    1.09    0.70   0
  11  -4  -5    2.29    0.69   0
  11   6  -4   13.25    0.93   0
  12   7  -3    0.39    0.73   0
   7  -1  -5   80.08    1.11   0
   8   2  -5    1.61    0.64   0
   9  -4  -5    0.56    0.59   0
  10  -4  -5    0.25    0.73   0
  10   8  -3    0.55    0.86   0
  11   2  -5    2.03    0.69   0
  12  -1  -5    1.02    0.61   0
  12   5  -4   -0.19    0.69   0
  13   3  -4   10.42    0.74   0
   5   2  -4    4.55    0.45   0
   5   6  -3    1.01    0.47   0
   5   8  -2  335.75    1.94   0
   7   9  -2   26.37    1.04   0
   8  -3  -5   51.19    0.98   0
   8   1  -5  156.62    1.65   0
   8   6  -4    3.57    0.71   0
   9   2  -5   94.93    1.45   0
   9   6  -4    1.91    0.78   0
   9   8  -3   28.62    1.14   0
  10   6  -4    4.61    0.86   0
  11  -3  -5    6.68    0.70   0
  11   1  -5   16.04    0.85   0
  13  -4  -4    8.32    0.77   0
   5  -3  -4    1.03    0.37   0
   6   4  -4   26.12    0.75   0
   8  -1  -5  155.74    1.59   0
   9  -3  -5    0.85    0.60   0
   9   1  -5  112.27    1.51   0
   9   9  -2    5.41    0.95   0
  11  -2  -5    0.90    0.62   0
  11  -1  -5   19.18    0.85   0
  11   5  -4    0.21    0.77   0
  12   4  -4   12.88    0.85   0
  13   2  -4    0.42    0.62   0
  13   6  -2    0.31    0.53   0
  -3  10   9    7.60    0.68   0
   1  -1   9    3.11    0.73   0
   1   3   9    5.80    0.67   0
   1   9   3  137.81    1.24   0
   2  -1   8    0.71    0.77   0
   3   6   5    1.12    0.52   0
  -1  10   8   15.49    0.79   0
  -1  11   7    0.52    0.85   0
   0   1  10    0.15    0.53   0
   1  -2   9    0.75    0.69   0
   1   4   9   10.15    0.69   0
   1   7   8   -0.37    0.58   0
   2   4   8   -0.17    0.63   0
   2   8   3  125.43    1.16   0
   3   1   7   35.88    1.07   0
   3   6   3   12.49    0.47   0
   4   0   4   17.10    0.65   0
   4   2   4    0.61    0.47   0
   0   0  10    0.19    0.55   0
   0   2  10    0.59    0.51   0
   0   3  10    1.57    0.50   0
   0   7   9   31.39    0.86   0
   1  10   4    7.72    0.78   0
   1  10   5    0.32    0.66   0
   2   7   2  353.15    1.69   0
   2   7   7    6.96    0.70   0
   3  -1   7   35.75    1.11   0
   3   3   7    1.15    0.68   0
   4   1   3  238.35    1.57   0
   4   1   5  169.69    1.70   0
   4   2   3   14.85    0.55   0
   4   2   5    2.34    0.62   0
   4   3   4    2.37    0.50   0
   0  -1  10    0.20    0.45   0
   0  -1  10   -0.13    0.31   0
   0  11   6   -0.25    0.89   0
   2  -3   8    1.24    0.80   0
   3   4   7    1.67    0.69   0
   3   5   2   41.36    0.66   0
   3   7   5    0.12    0.53   0
   4   3   3   21.93    0.61   0
   4   3   5    1.22    0.61   0
   1   8   8    2.74    0.61   0
   4  -2   4    0.35    0.51   0
   4   4   5    0.98    0.59   0
   0   8   9    0.16    0.52   0
   1   6   9   11.05    0.68   0
   2   8   7    5.42    0.68   0
   2   9   6   27.34    0.91   0
   3  -3   7    2.44    0.83   0
   3   7   6    0.55    0.60   0
   4  -2   3   14.53    0.53   0
   4   0   6    1.54    0.76   0
   4   2   6    0.53    0.70   0
   4   5   4   -0.12    0.47   0
   0  10   8    2.96    0.63   0
   0  11   7    1.52    0.83   0
   2   2   9    0.22    0.68   0
   2   9   3    8.77    0.59   0
   3   6   2   11.22    0.46   0
   3   6   7    9.67    0.76   0
   3   8   5    1.11    0.58   0
   4  -3   4    2.64    0.51   0
   4   1   2   18.07    0.57   0
   4   2   2    4.13    0.44   0
   1   9   8    0.52    0.66   0
   1  11   5   10.06    0.99   0
   2   3   9    3.31    0.63   0
   2   7   8    0.17    0.59   0
   2   8   2 1550.46    3.71   0
   3   0   8    2.04    0.77   0
   3   1   8    0.47    0.67   0
   3   2   8    6.78    0.75   0
   3   3   8    0.93    0.65   0
   4  -3   5    1.23    0.65   0
   4  -2   6    1.04    0.76   0
   4   6   4  229.92    1.74   0
   4   6   5    6.77    0.65   0
   1   7   9    0.31    0.50   0
   2  -1   9   -0.15    0.68   0
   2   4   9    6.99    0.66   0
   2   9   7   -0.35    0.60   0
   2  10   4   27.26    0.89   0
   2  10   5   31.75    0.96   0
   3  -1   8    0.27    0.75   0
   3   4   8    8.71    0.75   0
   3   8   6   59.85    1.16   0
   4  -3   3   19.53    0.56   0
   4   6   3    5.21    0.47   0
   3   7   7    6.13    0.68   0
   4   1   7    2.40    0.76   0
   4   2   7    2.35    0.74   0
   4   6   6   -0.56    0.62   0
   5   1   4   10.27    0.69   0
   5   2   4    6.91    0.64   0
   2   5   9    0.20    0.51   0
   2   8   8   18.95    0.78   0
   3   5   8    0.20    0.59   0
   4  -3   6    1.16    0.78   0
   4  -1   7    3.48    0.82   0
   4   4   7    0.30    0.68   0
   4   5   2   10.38    0.51   0
   4   7   5   83.51    1.27   0
   5   0   4   87.45    1.26   0
   5   1   5   26.66    0.97   0
   5   2   5   69.88    1.29   0
   5   3   4   13.13    0.71   0
   1   8   9    1.15    0.51   0
   2  10   3    5.67    0.65   0
   3   6   8    1.94    0.71   0
   3   8   7    0.32    0.60   0
   3   9   6    0.72    0.65   0
   4   5   7   36.01    1.03   0
   5  -1   4   11.05    0.69   0
   5   1   3  152.12    1.45   0
   5   2   3    8.03    0.48   0
   5   3   3  107.14    1.26   0
   5   3   5   62.88    1.25   0
   5   4   4  119.80    1.43   0
   0  11   8    0.73    0.64   0
   1  10   8   11.25    0.70   0
   1  11   7    8.33    0.79   0
   2   6   9   -0.39    0.49   0
   3   9   3   30.45    0.81   0
   4  -2   7    1.79    0.82   0
   4   6   2  128.04    1.22   0
   4   7   6   14.11    0.79   0
   4   8   4    3.42    0.57   0
   5  -1   5   27.16    0.98   0
   2  11   4    2.39    0.88   0
   5  -2   4    6.10    0.64   0
   5   1   6    0.88    0.77   0
   5   2   6    7.80    0.83   0
   5   3   6    0.47    0.72   0
   5   5   3   41.11    0.86   0
   2   9   8    0.29    0.53   0
   2  11   6    0.21    0.74   0
   3   2   9   -0.23    0.64   0
   3   7   8    8.24    0.65   0
   3  10   4   25.46    0.89   0
   4   8   3   19.12    0.69   0
   4   8   6    1.29    0.62   0
   5  -2   5   66.76    1.27   0
   5  -1   6    1.37    0.92   0
   5   1   2   19.62    0.66   0
   5   2   2   16.09    0.64   0
   3   1   9    2.95    0.61   0
   3   3   9   11.03    0.68   0
   3   9   7    2.38    0.61   0
   4   0   8    1.93    0.82   0
   4   2   8    0.42    0.65   0
   4   3   8    3.37    0.69   0
   4   7   2   37.30    0.78   0
   4   7   7   10.34    0.72   0
   5  -2   3    7.85    0.57   0
   5   0   2  196.93    1.53   0
   5   3   2   54.11    0.87   0
   5   5   6    1.64    0.70   0
   3   4   9    0.34    0.53   0
   4   4   8    1.66    0.63   0
   5  -3   4    6.57    0.65   0
   5   7   4   -0.06    0.54   0
   5   7   5    9.51    0.72   0
   2  11   7    2.03    0.68   0
   3   8   8   10.57    0.67   0
   3   9   2    2.55    0.55   0
   4  -1   8    1.35    0.75   0
   4   5   8    1.53    0.60   0
   4   9   6    5.16    0.78   0
   5  -3   3  112.16    1.22   0
   5   3   7    3.06    0.73   0
   5   5   2    6.16    0.55   0
   5   7   3    4.38    0.54   0
   6   2   4   50.91    1.15   0
   6   3   4    5.56    0.72   0
   2  10   8    4.77    0.61   0
   3  11   5    3.86    0.78   0
   4   8   7    0.35    0.58   0
   5   4   7    1.43    0.68   0
   6   1   3   93.72    1.30   0
   6   2   3   28.30    0.88   0
   6   2   5   22.00    1.00   0
   6   3   3    7.63    0.68   0
   6   3   5   10.03    0.82   0
   6   4   4   28.01    0.95   0
   2  12   6    9.00    1.00   0
   3  11   4   59.09    1.26   0
   3  11   6   11.28    0.91   0
   5  -2   2   14.12    0.58   0
   5  -1   7    5.92    0.86   0
   5   5   7   14.98    0.81   0
   5   6   2    0.21    0.48   0
   5   7   6    0.51    0.61   0
   5   8   4    3.23    0.58   0
   5   8   5    0.05    0.61   0
   6   4   3   13.08    0.74   0
   3   9   8    4.76    0.56   0
   5   8   3    0.92    0.54   0
   6  -1   4    0.57    0.65   0
   4   7   8   -0.32    0.51   0
   4   9   7    3.85    0.61   0
   4  10   6   12.84    0.79   0
   5   1   1    6.72    0.48   0
   5   2   1   46.21    0.79   0
   5   8   6    0.99    0.61   0
   6  -1   3   98.99    1.29   0
   6   2   2   15.80    0.74   0
   6   2   6   23.67    1.01   0
   6   3   2   40.33    0.96   0
   6   3   6    1.53    0.74   0
   6   4   6    5.71    0.75   0
   6   6   4   14.97    0.77   0
   3   8   1   37.11    0.71   0
   3  10   2  162.97    1.60   0
   3  11   3   47.78    1.15   0
   4   9   2   18.08    0.77   0
   4  10   3    1.97    0.68   0
   5   4   1    0.38    0.29   0
   5   9   5   54.47    1.14   0
   6  -2   4   42.94    1.05   0
   6   0   6   62.45    1.37   0
   6   1   2    0.68    0.55   0
   6   6   3    0.19    0.54   0
   3  11   7    0.55    0.66   0
   3  12   5    0.25    0.91   0
   5   3   8    2.79    0.60   0
   5   5   1  176.08    1.45   0
   5   7   7   12.03    0.71   0
   5   9   3   12.15    0.72   0
   6  -2   3   27.20    0.82   0
   6   0   2   10.37    0.64   0
   6   7   4   -0.45    0.57   0
   6   7   5    0.86    0.62   0
   4  11   4    1.65    0.75   0
   4  11   5   16.27    0.89   0
   5   1   8    3.12    0.68   0
   5   4   8    0.34    0.56   0
   5   9   6    4.01    0.63   0
   6  -1   2    0.75    0.54   0
   6   7   3    7.40    0.63   0
   3  12   6    0.07    0.73   0
   5   0   8   13.62    0.82   0
   5   6   1   -0.01    0.46   0
   5  10   5    0.48    0.72   0
   6   3   7    0.77    0.62   0
   6   6   2   60.32    1.10   0
   6   8   4   16.06    0.77   0
   7   1   4    0.03    0.73   0
   7   4   4   47.93    1.18   0
   3   9   1    8.04    0.54   0
   4   8   1    2.80    0.51   0
   4  10   2   15.68    0.82   0
   4  11   3    0.40    0.76   0
   4  11   6    2.49    0.65   0
   6  -3   3    7.71    0.65   0
   6  -2   6   24.76    1.06   0
   6   1   7    1.03    0.73   0
   6   4   7    0.48    0.62   0
   6   7   6    0.83    0.60   0
   6   8   3    0.49    0.57   0
   6   8   5   20.89    0.85   0
   7   1   5    2.87    0.81   0
   7   2   5    1.22    0.76   0
   7   3   3   -0.00    0.48   0
   7   4   5    9.85    0.81   0
   7   5   4    0.16    0.67   0
   5   7   1  335.77    2.10   0
   5  10   3    1.22    0.68   0
   6  -2   2   14.70    0.68   0
   6   1   1  243.05    1.79   0
   6   3   1    0.90    0.51   0
   6   5   7   -0.27    0.58   0
   5   9   7    1.96    0.59   0
   5  10   6    5.41    0.66   0
   6   5   1   34.38    0.87   0
   6   6   7    0.81    0.53   0
   6   8   6    4.93    0.62   0
   6   9   4    0.22    0.60   0
   7  -1   4   -0.16    0.72   0
   7   2   2  205.95    1.99   0
   7   3   2   -0.02    0.71   0
   7   6   3    3.61    0.65   0
   4  12   4   19.53    1.01   0
   4  12   5    0.66    0.75   0
   5  11   4   11.53    0.82   0
   6  -1   7    0.11    0.77   0
   6   8   2   27.51    0.88   0
   6   9   5   -0.00    0.56   0
   7  -1   3  106.37    1.44   0
   7  -1   5    3.61    0.83   0
   7   1   2   23.18    0.90   0
   7   3   6   14.65    0.86   0
   7   4   2   74.07    1.23   0
   7   4   6    4.71    0.70   0
   7   7   4    2.95    0.64   0
   4   9   1   16.47    0.70   0
   5   3   0   17.03    0.50   0
   5  11   5    3.82    0.71   0
   6  -3   2   38.60    0.87   0
   6   6   1   92.61    1.27   0
   6   7   7    0.58    0.58   0
   7  -2   4    3.40    0.78   0
   7   0   2   67.14    1.21   0
   7   1   6    4.97    0.79   0
   7   5   6   -0.36    0.59   0
   7   7   5    8.65    0.70   0
   4  11   2    1.67    0.88   0
   4  12   6   11.27    0.78   0
   5   4   0  214.23    1.38   0
   5  10   2   11.79    0.82   0
   6   9   6    0.13    0.55   0
   6  10   4    3.96    0.67   0
   7  -2   3   21.47    0.87   0
   7  -2   5    0.58    0.92   0
   7   0   6    0.70    0.77   0
   7   6   2   13.42    0.79   0
   5   5   0    0.04    0.37   0
   5  11   6    4.32    0.62   0
   6   7   1  156.37    1.63   0
   6  10   5    1.53    0.62   0
   7   6   6    9.75    0.67   0
   7   7   2   13.05    0.76   0
   7   8   3    4.06    0.63   0
   7   8   4    1.50    0.58   0
   8   3   4   42.29    1.16   0
   5   9   1  100.91    1.37   0
   7  -1   6    5.03    0.84   0
   7   2   1   -0.14    0.60   0
   7   3   1   23.41    0.87   0
   7   7   6    0.26    0.62   0
   7   8   5    1.34    0.58   0
   8   1   3   43.70    1.15   0
   8   1   4   16.17    0.95   0
   8   2   4    0.52    0.73   0
   8   4   3    0.47    0.71   0
   8   4   4    2.19    0.71   0
   4  10   1   15.95    0.75   0
   5   6   0   22.90    0.62   0
   5  12   4    2.05    0.90   0
   6  -2   1   46.39    0.88   0
   6   8   1   14.52    0.79   0
   7  -3   3    0.19    0.65   0
   7   1   1    6.40    0.53   0
   7   5   1    9.05    0.74   0
   7   9   4    3.07    0.61   0
   8   0   4    2.62    0.77   0
   8   3   5    5.19    0.77   0
   8   4   5    1.91    0.68   0
   8   5   3   10.55    0.79   0
   5  11   2   -0.06    0.77   0
   5  12   5    1.07    0.69   0
   6   2   0   44.83    0.77   0
   6   4   0   34.06    0.73   0
   6  10   2    0.92    0.84   0
   6  10   6   10.11    0.64   0
   7   2   7    0.14    0.57   0
   7   8   2    3.27    0.65   0
   7   9   3   -0.40    0.58   0
   7   9   5   -0.50    0.62   0
   8   1   2    5.19    0.77   0
   8   1   5   14.33    0.92   0
   8   2   2   -0.43    0.72   0
   8   3   2   17.07    0.93   0
   8   4   2   -0.20    0.71   0
   8   5   5    6.31    0.69   0
   4   8   0  172.62    1.38   0
   5   7   0   53.12    0.87   0
   5  12   3    1.31    0.85   0
   6   1   0    8.36    0.48   0
   6   5   0   -0.26    0.43   0
   6  11   3    1.97    0.74   0
   6  11   5    1.19    0.61   0
   7   8   6    7.07    0.59   0
   8  -1   3   43.88    1.11   0
   8  -1   4   16.59    0.94   0
   8   6   5    1.62    0.60   0
   8   7   3   23.24    0.84   0
   8   7   4    1.84    0.61   0
   5  10   1    0.36    0.67   0
   6   6   0    0.51    0.47   0
   7  -3   2   -0.43    0.76   0
   7   7   1   75.81    1.32   0
   7  10   4    7.44    0.75   0
   6  -3   1    0.47    0.53   0
   6   0   0    0.64    0.38   0
   7  10   3   14.16    0.78   0
   8  -1   5   12.06    0.90   0
   8   2   6    0.12    0.63   0
   8   3   6    0.89    0.62   0
   8   4   6    1.53    0.59   0
   8   7   2   26.08    0.92   0
   8   7   5   18.10    0.78   0
   8   8   3    0.43    0.55   0
   8   8   4   14.35    0.73   0
   5   8   0   20.04    0.70   0
   7   3   0   14.40    0.66   0
   7   8   1    2.43    0.71   0
   7  10   5   -0.05    0.52   0
   8  -2   3   71.79    1.29   0
   8  -1   2    4.23    0.73   0
   8   1   1   23.66    0.95   0
   8   1   6    1.00    0.67   0
   8   2   1    7.03    0.79   0
   8   4   1    0.23    0.54   0
   8   5   6    0.13    0.54   0
   4   9   0   21.19    0.73   0
   6  12   4    3.83    0.75   0
   7  -2   1   -0.95    0.60   0
   7   2   0   35.06    0.83   0
   7   5   0    8.40    0.64   0
   8   6   1   19.77    0.95   0
   8   8   2   10.13    0.73   0
   8   8   5    0.64    0.50   0
   9   2   4   -0.11    0.82   0
   9   3   3   46.75    1.21   0
   9   3   4    0.91    0.69   0
   9   4   3   -0.47    0.69   0
   9   4   4   13.30    0.81   0
   6  10   1   32.41    1.05   0
   6  12   3   11.52    0.89   0
   6  12   5    0.86    0.59   0
   7   6   0   28.29    0.86   0
   7  11   4    3.74    0.70   0
   8  -2   2   -0.35    0.69   0
   8   0   6    2.15    0.70   0
   8   9   4   -0.00    0.53   0
   9   1   3   -0.20    0.75   0
   9   1   4    5.26    0.78   0
   9   3   2    0.79    0.74   0
   9   4   2    0.65    0.73   0
   9   5   3   12.09    0.80   0
   9   5   4    7.14    0.72   0
   5   9   0   69.61    1.10   0
   5  11   1    3.25    0.77   0
   6   8   0   20.12    0.79   0
   7   0   0  319.02    2.04   0
   7   9   1    1.74    0.71   0
   7  11   3    0.30    0.66   0
   9   5   2    3.24    0.74   0
   9   6   4   21.91    0.83   0
   5   4  -1  134.29    1.06   0
   7  -3   1   22.87    0.84   0
   7   7   0    1.79    0.63   0
   7  11   5    1.38    0.51   0
   8   9   2    0.09    0.60   0
   8   9   5   15.92    0.66   0
   9   0   4    2.48    0.78   0
   9   2   5   -0.44    0.64   0
   9   3   5   15.29    0.79   0
   9   4   5    5.22    0.66   0
   9   5   5    0.86    0.62   0
   6  12   2    3.74    1.00   0
   7  11   2    0.14    0.74   0
   8   2   0   26.83    0.90   0
   8   3   0    0.47    0.63   0
   8   8   1    0.89    0.70   0
   8  10   3    6.95    0.64   0
   8  10   4   -0.19    0.49   0
   9  -1   3    0.19    0.76   0
   9   1   5    5.30    0.74   0
   9   3   1   37.68    1.21   0
   9   4   1   14.71    0.98   0
   9   7   2    0.92    0.60   0
   9   7   4    0.41    0.54   0
   6   9   0    2.81    0.67   0
   6  11   1   10.13    0.89   0
   7   8   0   65.59    1.21   0
   7  10   1   84.72    1.50   0
   8  -3   2   18.77    0.87   0
   8  -2   1    6.61    0.87   0
   9  -1   4    4.84    0.80   0
   9   1   1   69.44    1.39   0
   9   8   3    5.00    0.60   0
   5   6  -1    6.22    0.42   0
   6   2  -1  206.47    1.36   0
   6   5  -1  109.30    1.11   0
   7  12   3    3.88    0.81   0
   7  12   4   16.08    0.76   0
   8   6   0   16.58    0.84   0
   8   9   1    6.17    0.78   0
   8  10   2    1.49    0.63   0
   9   6   1    3.02    0.77   0
   9   8   2    0.52    0.56   0
   9   8   4    7.26    0.60   0
   8   0   0   31.63    0.93   0
   8   7   0   21.55    0.91   0
   9   7   1   11.03    0.81   0
  10   3   3    0.74    0.65   0
  10   4   3    1.24    0.63   0
   6  -3   0   53.26    0.84   0
   7   2  -1   20.19    0.61   0
   7   4  -1    2.93    0.47   0
   8  11   3    1.53    0.59   0
   9   9   3   12.01    0.64   0
   9   9   4    0.61    0.53   0
  10   2   2   26.97    1.00   0
  10   2   3   -0.38    0.68   0
  10   3   2    7.50    0.82   0
  10   4   2   16.64    0.88   0
  10   5   3    1.43    0.60   0
   6   7  -1   78.28    1.06   0
   7  11   1   24.18    1.06   0
   8  -3   1   36.08    1.02   0
   8   8   0   47.60    1.17   0
   8  11   2    7.80    0.82   0
   9  -1   1   70.78    1.34   0
   9   2   0   -0.03    0.75   0
   9   3   0    0.54    0.76   0
   9   4   0    0.39    0.75   0
   9   8   1    1.19    0.67   0
   9   9   2    0.21    0.53   0
  10   1   3    0.08    0.71   0
  10   2   4    8.55    0.74   0
  10   3   4    0.27    0.61   0
  10   4   4    1.13    0.58   0
  10   5   2    1.21    0.64   0
  10   5   4    9.91    0.65   0
  10   6   3    2.11    0.57   0
   5   8  -1   52.76    0.86   0
   9   1   0   27.04    1.03   0
   9   6   0    1.71    0.75   0
  10   1   4    2.47    0.76   0
  10   3   1   39.04    1.19   0
  10   4   1   11.44    0.92   0
  10   6   4    4.09    0.53   0
   4   8  -1   15.69    0.52   0
   7  10   0   32.14    1.07   0
   8   3  -1   40.50    0.91   0
   8   9   0    0.53    0.85   0
   9   9   1    4.85    0.67   0
   9  10   3    1.88    0.51   0
  10   0   2   40.78    1.09   0
  10   2   1    1.73    0.78   0
  10   7   2    0.14    0.53   0
   6  11   0   45.52    1.20   0
   8   2  -1    7.98    0.61   0
   8   5  -1    4.75    0.60   0
   9   0   0    0.42    0.72   0
   9  10   2    2.51    0.56   0
  10   0   4   18.24    0.85   0
  10   1   1    0.62    0.76   0
  10   8   3    2.06    0.54   0
   7   8  -1   14.92    0.76   0
   7  12   1    4.60    0.86   0
   8   1  -1    4.74    0.59   0
   8   6  -1   46.02    1.02   0
   9   8   0    1.16    0.71   0
  10  -1   2    5.35    0.77   0
  10  -1   3   -0.48    0.70   0
  10   7   1    0.25    0.61   0
  10   8   2    2.92    0.53   0
   6   9  -1   12.53    0.71   0
   7  -1  -1    8.54    0.52   0
   8   7  -1    5.05    0.69   0
   8  10   0    8.42    0.98   0
   8  12   2    3.99    0.72   0
   9  10   1    1.55    0.63   0
  10   4   0    1.68    0.83   0
   7  11   0    6.64    0.87   0
   9  -3   1   33.20    1.03   0
   9   3  -1  132.77    1.65   0
   9   5  -1   73.64    1.31   0
   9  11   2    0.92    0.62   0
   9  11   3    4.85    0.46   0
   9  11   3    1.69    0.30   0
  10  -1   1    0.88    0.71   0
  10   6   0   28.08    1.08   0
  10   8   1    1.45    0.57   0
  10   9   2    0.02    0.48   0
  10   9   3   -0.00    0.43   0
  11   3   2    0.34    0.62   0
  11   4   2    2.13    0.60   0
   7   9  -1   -0.04    0.65   0
   8  -3   0   -0.36    0.68   0
   8   8  -1    8.11    0.76   0
   9   6  -1   31.73    1.01   0
   9   9   0   10.47    0.84   0
  10   1   0    6.10    0.87   0
  11   2   2    3.15    0.69   0
  11   2   3    0.43    0.67   0
  11   3   3    0.11    0.59   0
  11   4   3    1.46    0.57   0
  11   5   2   -0.28    0.56   0
  11   5   3    6.23    0.56   0
   6   3  -2   30.34    0.60   0
   6   4  -2    7.85    0.44   0
   8  -1  -1    5.40    0.62   0
   8  12   1   -0.03    0.84   0
   9   1  -1   -0.01    0.62   0
   9   7  -1    7.56    0.76   0
  10   7   0    3.81    0.74   0
  10   9   1    5.83    0.60   0
  11   1   2   -0.25    0.68   0
  11   2   1    0.74    0.67   0
  11   3   1   13.06    0.84   0
  11   4   1   -0.74    0.64   0
  11   5   1    7.87    0.72   0
  11   6   2    9.27    0.62   0
   5   4  -2   24.57    0.53   0
   5   5  -2   72.66    0.82   0
   6   5  -2    0.41    0.36   0
   6  10  -1   12.83    0.76   0
   7   4  -2   87.81    1.05   0
   7   5  -2   13.64    0.58   0
   8  11   0    2.15    0.80   0
  10  -2   1    1.90    0.75   0
  10   8   0   31.41    1.00   0
  10  10   2    6.03    0.51   0
  11   1   3    2.94    0.65   0
  11   7   2   -0.00    0.48   0
   6   1  -2    3.02    0.35   0
   6   6  -2   98.33    1.07   0
   7   2  -2   63.43    0.87   0
   7   6  -2   87.68    1.13   0
   7  10  -1   80.79    1.34   0
  10  -1   0    6.24    0.84   0
  10   3  -1    7.59    0.85   0
  10   4  -1   31.45    1.11   0
  11   0   2   25.48    0.90   0
  11   7   1   -0.15    0.50   0
   7   1  -2    1.59    0.41   0
   8   4  -2    0.83    0.50   0
   8   5  -2   27.48    0.79   0
   9  -3   0    1.01    0.91   0
   9  12   2    1.14    0.55   0
  10   6  -1    2.32    0.74   0
  10  10   1    1.34    0.53   0
  11   2   0   31.18    1.09   0
  11   3   0   19.20    0.99   0
  11   4   0   63.75    1.39   0
  11   5   0    4.96    0.80   0
  11   8   2    2.75    0.46   0
   5   7  -2   31.43    0.66   0
   7   7  -2    1.27    0.52   0
   8   6  -2    6.67    0.63   0
  10   1  -1  213.70    2.19   0
  10   9   0    3.57    0.64   0
  11  -1   2    0.48    0.73   0
  11   1   0   -0.70    0.85   0
  11   8   1    0.61    0.48   0
   7   0  -2   34.18    0.69   0
   8   1  -2  103.00    1.22   0
   8   7  -2    1.45    0.59   0
   9   9  -1   16.31    0.91   0
   9  11   0    0.04    0.72   0
   9  12   1   -0.34    0.70   0
  10  -2   0   15.50    0.95   0
  10   7  -1   19.94    0.94   0
  11  -1   1    0.23    0.77   0
  11   7   0   34.14    0.96   0
   6   8  -2   22.36    0.72   0
   7  11  -1    0.80    0.74   0
   8  12   0    4.32    0.84   0
   9   2  -2    6.00    0.63   0
   9   5  -2   25.39    0.86   0
   9   6  -2   16.38    0.79   0
  10   8  -1   -0.09    0.68   0
  10  10   0    0.24    0.69   0
   5   8  -2  331.99    1.83   0
   6  -1  -2    3.09    0.36   0
   8   0  -2  251.96    1.77   0
   8   8  -2  102.64    1.41   0
   9   1  -2    8.96    0.66   0
  10  11   1    0.17    0.50   0
  11   3  -1    0.13    0.79   0
  11   4  -1    2.84    0.82   0
  11   8   0    0.21    0.55   0
  11   9   1    0.26    0.41   0
  12   3   1   11.20    0.71   0
  12   4   1    0.82    0.57   0
  12   5   1    2.22    0.52   0
   6   9  -2    1.21    0.62   0
   7   9  -2   27.10    0.94   0
   8  11  -1    1.13    0.77   0
  11  -1   0    0.08    0.69   0
  11   2  -1    4.79    0.86   0
  11   6  -1   -0.00    0.71   0
  12   2   2    0.46    0.54   0
  12   6   1    4.03    0.50   0
   7  -4  -1    2.98    0.64   0
   8  -1  -2  110.98    1.26   0
   9   0  -2   51.85    1.04   0
  10   2  -2   -0.27    0.64   0
  10   3  -2   17.52    0.84   0
  11  -2   1   -0.30    0.66   0
  11   1  -1   20.74    1.02   0
  11   7  -1    6.64    0.74   0
  11   9   0    2.22    0.52   0
  12   1   1    7.29    0.68   0
  12   1   2    0.56    0.55   0
  12   3   0   10.73    0.76   0
  12   4   0   -0.46    0.63   0
  12   5   0    0.58    0.58   0
   4   8  -2    4.12    0.41   0
   5   9  -2    1.95    0.49   0
   8   9  -2    3.82    0.72   0
   9  12   0    1.02    0.71   0
  10   1  -2    8.76    0.76   0
  10   6  -2   46.48    1.11   0
  10  11   0    1.44    0.62   0
  11  10   1   13.28    0.54   0
  12   2   0    0.47    0.65   0
   9  11  -1   33.40    1.07   0
  10   7  -2   36.68    1.06   0
  11   8  -1   -0.18    0.62   0
  12   7   0    0.05    0.52   0
   7   3  -3   15.45    0.55   0
   7   4  -3   41.55    0.78   0
   7   5  -3  104.90    1.16   0
   7  10  -2   10.13    0.76   0
   8   4  -3    3.26    0.50   0
  10   0  -2    0.69    0.70   0
  11  10   0    2.82    0.51   0
   6   3  -3  112.80    1.04   0
   6   4  -3   17.15    0.52   0
   6   5  -3   12.58    0.51   0
   7   6  -3    3.16    0.50   0
   8   2  -3    4.25    0.50   0
   8   5  -3    5.18    0.55   0
   8  10  -2   42.59    1.11   0
  10   8  -2   14.33    0.84   0
  11  -1  -1   20.69    0.99   0
  11   2  -2   41.32    1.14   0
  11   3  -2    3.01    0.75   0
  11   4  -2   39.47    1.00   0
  11   9  -1    0.73    0.57   0
  12   0   0    9.58    0.73   0
  12   2  -1    7.94    0.79   0
  12   3  -1    8.33    0.80   0
  12   4  -1    2.24    0.70   0
  12   8   0    5.40    0.52   0
   6   6  -3    1.04    0.42   0
   7   1  -3   27.22    0.63   0
   9  -4  -1   -0.38    0.91   0
   9  -2  -2    6.79    0.74   0
   9   3  -3   24.85    0.80   0
   9   4  -3   19.49    0.75   0
   9   5  -3  146.97    1.57   0
  10  -3  -1    9.04    0.89   0
  11   1  -2   10.99    0.84   0
  11   6  -2    0.58    0.65   0
  12   1  -1   11.02    0.93   0
   7  -3  -2   25.29    0.68   0
   7   7  -3    4.44    0.55   0
   8   7  -3  184.14    1.71   0
   9   2  -3   18.90    0.71   0
   9   6  -3   22.53    0.81   0
   9  10  -2   35.58    1.06   0
   9  12  -1    0.69    0.85   0
  10   9  -2   50.37    1.15   0
  10  12   0    0.34    0.47   0
  10  12   0    0.03    0.31   0
  11   7  -2    9.04    0.76   0
  12  -1   0    4.40    0.72   0
  12   7  -1    3.94    0.57   0
   5   3  -3  408.78    1.75   0
   5   5  -3    5.07    0.39   0
   6   7  -3   31.79    0.74   0
   7  11  -2    0.42    0.69   0
   9   1  -3    4.87    0.57   0
   9   7  -3   20.81    0.83   0
  10   3  -3    1.41    0.58   0
  11  -2  -1    4.78    0.82   0
  11   8  -2    2.94    0.64   0
  11  11   0    0.39    0.44   0
   5   2  -3  153.88    1.08   0
   7   8  -3    0.69    0.55   0
  10  -2  -2   -0.19    0.73   0
  10   2  -3    4.38    0.65   0
  10   6  -3    2.42    0.63   0
  12   3  -2    1.43    0.73   0
  12   4  -2   14.49    0.88   0
  12   5  -2    0.09    0.67   0
  12   8  -1    0.86    0.47   0
  13   3   0   -0.15    0.50   0
  13   4   0    0.30    0.45   0
   6   8  -3   25.03    0.71   0
   9  11  -2    2.38    0.83   0
  10   1  -3   56.59    1.11   0
  10   7  -3  120.94    1.54   0
  10  10  -2    1.38    0.69   0
  12   2  -2   30.24    1.05   0
  12   6  -2    0.09    0.62   0
   5   7  -3    0.77    0.40   0
   8  -1  -3   39.81    0.82   0
   8   9  -3    7.59    0.71   0
  11   4  -3   -0.34    0.63   0
  11   5  -3    0.17    0.61   0
  11   9  -2    2.40    0.65   0
  12  -1  -1   12.16    0.79   0
  12   1  -2    2.29    0.73   0
  12   9  -1    6.11    0.49   0
  13   1   0    0.33    0.52   0
  13   3  -1    5.67    0.61   0
  13   4  -1    1.72    0.55   0
  13   5  -1   15.30    0.65   0
   6  -1  -3  238.13    1.41   0
   7  -4  -2  105.29    1.14   0
   8  -4  -2    0.89    0.68   0
   9  -1  -3    6.29    0.62   0
  10   8  -3    0.10    0.64   0
  10  12  -1    0.44    0.63   0
  11   2  -3   -0.53    0.60   0
  11   6  -3   33.37    0.96   0
  11  11  -1    6.01    0.58   0
  13   2  -1    6.78    0.64   0
  13   6  -1    4.00    0.48   0
   5   8  -3   25.45    0.64   0
   6  -4  -2    8.50    0.51   0
   6   9  -3  115.58    1.26   0
  10  11  -2    0.74    0.75   0
  11  -2  -2   44.30    1.18   0
  11   1  -3   10.85    0.78   0
  11   7  -3    0.01    0.61   0
  12   8  -2    9.03    0.64   0
  13   0   0    4.96    0.59   0
  13   1  -1    8.35    0.63   0
   4   6  -3  251.95    1.35   0
   7  -2  -3   60.24    0.86   0
   8  -2  -3    5.61    0.57   0
   9  -4  -2  140.31    1.64   0
  11  10  -2    8.76    0.70   0
  12  -2  -1    7.49    0.73   0
   7  10  -3    2.31    0.63   0
   8   3  -4   36.67    0.81   0
   8   4  -4   20.96    0.70   0
   8   5  -4    9.18    0.59   0
   9   4  -4  166.19    1.60   0
   9   5  -4    0.79    0.55   0
   9  10  -3    3.03    0.70   0
  11   8  -3   12.20    0.76   0
  12  -1  -2    2.30    0.73   0
  12   3  -3    4.44    0.69   0
  12   4  -3    2.78    0.66   0
  13   3  -2    0.89    0.61   0
  13   4  -2   -0.04    0.59   0
  13   5  -2    2.91    0.59   0
   4   7  -3   24.52    0.54   0
   6  -2  -3    0.94    0.35   0
   7   3  -4    2.98    0.44   0
   7   4  -4   13.47    0.48   0
   7   5  -4    4.81    0.50   0
   8   2  -4  129.48    1.28   0
   8   6  -4    4.02    0.57   0
   9   2  -4   16.99    0.69   0
   9   6  -4    1.33    0.57   0
  10   3  -4   65.72    1.10   0
  12   2  -3    0.79    0.67   0
  12   6  -3    0.15    0.58   0
  13   2  -2   -0.09    0.60   0
   7   6  -4  120.28    1.28   0
   8  -3  -3   72.24    1.07   0
   8   1  -4   38.59    0.81   0
   9   7  -4    4.75    0.61   0
  10   2  -4   29.93    0.85   0
  10   5  -4    0.99    0.56   0
  10   6  -4    4.77    0.62   0
  10  10  -3    0.95    0.66   0
  11   9  -3   -0.56    0.60   0
  12   1  -3   12.24    0.81   0
  12   7  -3   -0.20    0.56   0
  13   7  -2    0.12    0.42   0
   6   3  -4  102.69    1.02   0
   6   4  -4   23.90    0.60   0
   6   5  -4    3.77    0.43   0
   7   1  -4   48.66    0.80   0
  10   1  -4   20.10    0.76   0
  12  -2  -2   28.50    0.96   0
  13  -1  -1    8.37    0.62   0
   6   2  -4    0.49    0.33   0
   6   6  -4    4.53    0.48   0
   9   0  -4   74.38    1.10   0
   9   8  -4   12.63    0.72   0
   9  11  -3    8.05    0.74   0
  11   3  -4   -0.03    0.55   0
  11   5  -4    0.30    0.55   0
  12   8  -3    0.79    0.53   0
  12  10  -2    2.09    0.48   0
  13   0  -2    2.19    0.62   0
   5  10  -4    1.34    0.70   0
   6   7  -5  191.04    1.75   0
   7  -3  -4    2.97    0.53   0
  10  12  -4    0.78    0.65   0
   4   1  -4  289.52    1.51   0
   5  -1  -4   21.98    0.55   0
   6   6  -5   64.42    1.08   0
   6  11  -4    4.63    0.73   0
   8   9  -5    5.94    0.72   0
   8  12  -4    7.42    0.82   0
   9  12  -4    1.76    0.75   0
  11   8  -5    1.52    0.59   0
  12  -1  -4   -0.11    0.84   0
  12   5  -5    1.12    0.64   0
  12  10  -4    5.25    0.58   0
  13   1  -4    6.19    0.83   0
   6  -2  -4    0.75    0.40   0
   6   4  -5   92.20    1.16   0
   6   5  -5  188.24    1.63   0
   7   1  -5   83.64    1.11   0
   9   9  -5    2.96    0.69   0
  10  13  -3    3.09    0.67   0
  12   4  -5    3.43    0.60   0
   5   9  -4    0.35    0.65   0
   7   2  -5  114.11    1.30   0
   7   7  -5   12.71    0.74   0
   8   1  -5  150.63    1.52   0
  10   8  -5    2.76    0.66   0
  11   2  -5    1.68    0.65   0
  11   7  -5   -0.30    0.58   0
  13   2  -4   -0.33    0.67   0
  13   7  -4    0.58    0.52   0
   4   3  -4   51.00    0.72   0
   4   6  -4   73.36    0.93   0
   5   0  -4  342.55    1.71   0
   6  10  -4    0.06    0.76   0
   9  13  -3    0.64    0.74   0
  10   7  -5    4.62    0.67   0
  11   4  -5    2.59    0.62   0
  11   5  -5   -0.06    0.58   0
  11   6  -5    0.49    0.60   0
  11  10  -4    0.57    0.70   0
  11  12  -3    1.42    0.61   0
  12   0  -4   10.28    0.84   0
  12   9  -4    8.20    0.63   0
  13   5  -4   -0.19    0.67   0
  13   6  -4    1.38    0.57   0
   4   4  -4   27.61    0.55   0
   6  -1  -4    1.06    0.38   0
   7  -2  -4    4.81    0.52   0
   7   5  -5    0.62    0.40   0
   8   2  -5    2.04    0.57   0
   8  11  -4   26.84    1.00   0
   8  13  -3    5.30    0.84   0
   9   2  -5   91.49    1.30   0
   9   7  -5    2.55    0.67   0
   9  11  -4   18.08    0.92   0
  11  -1  -4    2.52    0.88   0
  13   4  -4   11.44    0.74   0
   3   8  -3   86.29    0.93   0
   8   3  -5   56.37    1.04   0
   8   4  -5   24.62    0.82   0
   8   6  -5    0.12    0.43   0
   9   3  -5    0.21    0.59   0
  10   4  -5   -0.20    0.58   0
  10   5  -5   60.98    1.18   0
  12   1  -4    0.82    0.82   0
  12   8  -4   12.51    0.71   0
   4  10  -3    0.61    0.54   0
   5   1  -4   19.60    0.53   0
   6  12  -3    0.37    0.74   0
   7  10  -4    0.08    0.70   0
  10  10  -4   -0.04    0.68   0
  10  12  -3    4.78    0.76   0
  11   9  -4    1.36    0.66   0
  12  10  -3    1.22    0.52   0
   3   7  -3  121.75    1.07   0
   5   7  -4   10.86    0.60   0
   5  11  -3    1.78    0.63   0
   6   0  -4    0.01    0.36   0
   9  10  -4   33.73    1.06   0
  11   0  -4   15.71    0.87   0
  11  11  -3   16.90    0.81   0
  12   6  -4    9.39    0.71   0
  13   1  -3    3.29    0.73   0
   5   3  -4    0.73    0.38   0
   5   6  -4   84.44    1.07   0
   6  -3  -3  114.57    1.05   0
   7  12  -3   15.69    0.93   0
   8  -1  -4   42.39    0.88   0
   9  12  -3    0.34    0.77   0
  10   9  -4    0.15    0.68   0
  10  13  -2    3.05    0.70   0
  11   8  -4   18.50    0.85   0
  12  -1  -3   12.02    0.92   0
  12   3  -4    1.49    0.66   0
  12   5  -4    0.42    0.64   0
  13   2  -3    0.26    0.80   0
  13   7  -3   21.71    0.75   0
   4   9  -3  138.15    1.31   0
   5   4  -4  305.05    1.76   0
   5   5  -4    5.96    0.48   0
   6   8  -4   65.65    1.11   0
   7   9  -4   12.84    0.79   0
   8  12  -3    3.70    0.81   0
  11  -2  -3    0.15    0.84   0
  11  12  -2   19.59    0.77   0
  12   9  -3    1.64    0.60   0
  13   6  -3    2.91    0.64   0
   6   1  -4    1.18    0.38   0
   6   7  -4    1.46    0.55   0
   6  11  -3   50.62    1.19   0
   7   0  -4   64.50    0.94   0
   9  13  -2    7.86    0.94   0
  10   8  -4    0.11    0.65   0
  10  11  -3    3.32    0.78   0
  11   2  -4   22.30    0.90   0
  11   7  -4    3.78    0.68   0
  11  10  -3    6.69    0.82   0
  13   4  -3   -0.16    0.69   0
  13   5  -3   24.63    0.89   0
   5  10  -3   20.41    0.78   0
   6   2  -4    0.54    0.39   0
   7  -3  -3   16.81    0.61   0
   7   8  -4   28.38    0.92   0
   8   0  -4  167.18    1.53   0
  10   1  -4   20.95    0.82   0
  11   3  -4    0.02    0.64   0
  11   4  -4   10.51    0.74   0
  11   5  -4   -0.11    0.63   0
  11   6  -4   15.30    0.80   0
   4   8  -3   71.03    0.96   0
   6   3  -4  112.97    1.15   0
   6   5  -4    3.89    0.50   0
   6   6  -4    4.36    0.53   0
   7   1  -4   50.09    0.86   0
   7   7  -4    6.70    0.65   0
   7  11  -3   87.97    1.46   0
   8   8  -4   60.79    1.21   0
   8  13  -2    3.68    0.85   0
  10   7  -4   10.18    0.78   0
  11  -1  -3    9.88    1.00   0
  12   1  -3    9.57    0.98   0
  12  10  -2    2.24    0.51   0
  13   1  -2   -0.25    0.66   0
   6  -2  -3    0.79    0.43   0
   7   2  -4    4.44    0.48   0
   8   1  -4   42.44    0.89   0
   8   7  -4    2.34    0.63   0
   9   1  -4    4.76    0.63   0
   9   7  -4    5.55    0.74   0
  10  -2  -3    4.75    0.79   0
  10   2  -4   29.19    0.91   0
  10  10  -3    1.16    0.71   0
  10  12  -2    1.32    0.73   0
  10  13  -1    2.69    0.68   0
  11   9  -3   -0.11    0.67   0
  11  11  -2   15.27    0.79   0
  12   7  -3   -0.66    0.62   0
  13   7  -2    0.61    0.50   0
   5   9  -3   35.46    0.88   0
   6  10  -3    9.60    0.75   0
   7   5  -4    4.12    0.56   0
   7   6  -4  111.64    1.37   0
   8   2  -4  120.83    1.35   0
   9   2  -4   17.96    0.76   0
   9   6  -4    1.58    0.65   0
  10   5  -4    1.33    0.47   0
  12   6  -3    0.40    0.66   0
  13   2  -2    0.39    0.69   0
  13   6  -2    0.61    0.57   0
   8   3  -4   36.28    0.87   0
   8   4  -4   19.59    0.75   0
   8   5  -4    8.71    0.67   0
   9   3  -4    6.06    0.65   0
   9  10  -3    3.54    0.78   0
   9  12  -2    1.49    0.92   0
  11   8  -3   12.23    0.82   0
  12   3  -3    4.12    0.76   0
  12   4  -3    2.85    0.75   0
  12   5  -3    0.43    0.67   0
  12   9  -2   13.47    0.68   0
  13   4  -2   -0.08    0.68   0
  13   5  -2    2.75    0.65   0
   4   6  -3  279.37    1.62   0
   6  12  -2   14.00    0.89   0
   7  -2  -3   60.11    0.88   0
  10   9  -3   18.32    0.95   0
   4   5  -3  206.47    1.35   0
   7  12  -2   49.81    1.26   0
   8  12  -2   10.55    0.94   0
  10  11  -2    0.89    0.76   0
  11  10  -2    9.06    0.75   0
  12   0  -2    8.03    0.87   0
   5  11  -2   79.16    1.30   0
   9  -1  -3    6.03    0.66   0
   9   9  -3   12.88    0.88   0
  10   8  -3    0.21    0.70   0
  10  12  -1    1.08    0.80   0
  11   2  -3   -0.32    0.71   0
  11   6  -3   33.83    1.06   0
  13   2  -1    6.32    0.71   0
  13   6  -1    3.61    0.55   0
   4  10  -2    0.85    0.54   0
   5   7  -3    1.15    0.46   0
   8  -1  -3   40.93    0.86   0
   8   9  -3    7.33    0.81   0
   8  13  -1    0.59    0.86   0
  11   3  -3    1.04    0.70   0
  11   4  -3    0.17    0.68   0
  11   5  -3    0.74    0.66   0
  12   1  -2    2.05    0.84   0
  12   7  -2   -0.21    0.64   0
  12   9  -1    5.99    0.55   0
  13   3  -1    5.67    0.69   0
  13   4  -1    1.70    0.63   0
  13   5  -1   16.96    0.73   0
   6   8  -3   25.47    0.82   0
  10   1  -3   56.94    1.17   0
  10   7  -3  125.28    1.70   0
  10  10  -2    2.15    0.77   0
  11  -1  -2   11.45    0.95   0
  12   6  -2    0.40    0.69   0
  13   2   0   -0.07    0.61   0
   5   6  -3    0.96    0.41   0
   6  11  -2    0.49    0.73   0
   7   8  -3    0.72    0.62   0
   8   8  -3   76.03    1.35   0
   8  11  -2    9.64    0.93   0
  10  -2  -2   -0.61    0.77   0
  10   2  -3    3.94    0.69   0
  11   8  -2    2.30    0.85   0
  11  11   0    0.58    0.55   0
  12   3  -2    1.94    0.80   0
  12   4  -2   13.53    0.94   0
  12   5  -2    0.63    0.72   0
  13   3   0   -0.35    0.61   0
   5   5  -3    5.04    0.44   0
   6   7  -3   31.36    0.81   0
   7  11  -2    0.96    0.76   0
   9   1  -3    5.03    0.61   0
   9   7  -3   20.18    0.91   0
   9  12  -1    0.63    0.84   0
   9  13   0    0.35    0.78   0
  10   3  -3    1.54    0.63   0
  10   4  -3   20.20    0.87   0
  11   0  -2    7.01    0.89   0
   4   9  -2   -0.12    0.49   0
   5  10  -2   33.02    0.90   0
   7   7  -3    4.76    0.64   0
   8  -3  -2    4.64    0.63   0
   8   7  -3  183.55    1.86   0
   9   6  -3   22.87    0.92   0
   9  10  -2   37.91    1.19   0
  10   9  -2   50.65    1.27   0
  10  11  -1    5.99    0.79   0
  10  12   0    0.15    0.62   0
   6   5  -3   12.27    0.56   0
   7  -3  -2   22.06    0.65   0
   7   1  -3   31.02    0.69   0
   8   1  -3   39.72    0.84   0
   8   6  -3    5.84    0.66   0
   8  12  -1    3.77    0.92   0
   9   2  -3   11.85    0.58   0
   9   3  -3   23.26    0.82   0
   9   5  -3  152.92    1.68   0
  11   9  -1    0.40    0.62   0
   6   3  -3  114.98    1.12   0
   6  10  -2   32.97    0.98   0
   7   2  -3   55.06    0.88   0
   7   5  -3  121.91    1.35   0
   7  12  -1    8.69    1.06   0
   8   2  -3    5.14    0.55   0
   8   3  -3   61.48    1.02   0
   8  13   0   11.73    1.00   0
   9  -2  -2    6.81    0.75   0
   9  13   1    5.11    0.75   0
  10   8  -2   19.57    0.99   0
  10  12   1    3.89    0.66   0
  11   2  -2   42.37    1.21   0
  11   5  -2   -0.25    0.74   0
  11   6  -2    0.97    0.55   0
  11  10   0    2.40    0.53   0
  12   2  -1    8.33    0.93   0
  12   5  -1    6.22    0.79   0
  12   6  -1    0.36    0.64   0
   4   8  -2    4.81    0.49   0
   5   9  -2    1.51    0.56   0
   7   3  -3   14.79    0.59   0
   8   4  -3    3.14    0.44   0
   9   9  -2    5.69    0.82   0
  10  10  -1   19.51    0.98   0
  11   3  -2    4.14    0.83   0
  11   4  -2   57.45    1.34   0
  12   0   0    7.80    0.77   0
  12   4  -1    3.50    0.82   0
  12   7   0   -0.13    0.56   0
   7  13   0   11.70    1.03   0
   8  -2  -2   37.86    0.86   0
   8   9  -2    4.77    0.78   0
   9  12   0    0.95    0.81   0
  10   0  -2    0.64    0.73   0
  10  11   0    1.59    0.68   0
  11   8  -1   -0.31    0.66   0
   7  -2  -2   65.30    0.90   0
   7   9  -2   25.04    0.94   0
   9  -1  -2    9.56    0.72   0
  10   1  -2    8.64    0.83   0
  11   9   0    1.40    0.55   0
  11  10   1   13.84    0.59   0
  12   1   0    4.48    0.77   0
  12   6   0    6.92    0.65   0
   5  11  -1   28.20    1.03   0
   8  13   1    0.24    0.97   0
   9  10  -1    1.65    0.97   0
  10  -2  -1    0.19    0.83   0
  10   2  -2    0.37    0.70   0
  10   9  -1    2.08    0.78   0
  12   2   0    0.39    0.74   0
  12   5   0    0.96    0.62   0
   6  11  -1   97.61    1.59   0
   7  11  -1    1.84    0.86   0
   8  -1  -2  108.50    1.27   0
   8  12   0    4.91    0.92   0
   9   7  -2   -0.33    0.70   0
  10   3  -2   16.48    0.88   0
  10   4  -2    9.18    0.80   0
  10  11   1    0.25    0.58   0
  11   6  -1   -0.03    0.77   0
  12   1   1    4.42    0.79   0
  12   3   0    9.15    0.83   0
  12   4   0   -0.29    0.67   0
  12   6   1    4.18    0.56   0
   4   6  -2  289.57    1.61   0
   6   8  -2   21.94    0.79   0
   9  11   0   -0.09    0.80   0
   9  12   1   -0.15    0.73   0
  10   8  -1   -0.19    0.75   0
  10  10   0    0.16    0.66   0
  11   4  -1    2.47    0.98   0
  11   5  -1   20.66    1.06   0
  11   9   1    0.56    0.48   0
  12   2   1    1.02    0.74   0
  12   5   1    2.50    0.58   0
   4  10  -1    8.03    0.62   0
   5   7  -2   36.65    0.77   0
   7  -1  -2    1.43    0.43   0
   8   7  -2    1.99    0.67   0
   9   1  -2    8.59    0.69   0
   9   5  -2   27.91    0.95   0
   9   9  -1   16.46    0.99   0
  10  -1  -1  206.56    2.13   0
  11   3  -1    0.81    0.83   0
  12   2   2    0.27    0.51   0
  12   2   2    0.06    0.32   0
  12   3   2    0.79    0.63   0
  12   4   1    1.13    0.61   0
   6   7  -2  262.77    1.92   0
   7   7  -2    0.92    0.59   0
   7  12   0   21.03    1.13   0
   7  13   1    1.15    0.95   0
   8   6  -2    5.68    0.66   0
   9   3  -2   80.96    1.28   0
   9   4  -2  108.78    1.48   0
   9  12   2    1.09    0.64   0
   5   6  -2    2.94    0.43   0
   5  10  -1   67.84    1.18   0
   6   0  -2   18.25    0.50   0
   6  12   0   30.35    1.16   0
   7   0  -2   32.58    0.70   0
   8   1  -2  101.27    1.24   0
   9  -2  -1   54.49    1.19   0
  10   9   0    3.43    0.73   0
  10  10   1    1.93    0.61   0
  11   0   0    7.32    0.89   0
  11   6   0    6.31    0.78   0
  11   8   1   -0.11    0.47   0
   6  10  -1   12.38    0.85   0
   7   6  -2   98.60    1.29   0
   8   2  -2   33.45    0.84   0
   8   3  -2    4.24    0.55   0
   8   4  -2    0.85    0.54   0
   8   9  -1   39.23    1.20   0
   8  12   1    1.26    0.86   0
   9  10   0    4.42    0.86   0
   9  11   1    5.82    0.81   0
  10  -2   0   10.92    1.06   0
  10   6  -1    1.73    0.76   0
  10  10   2    5.33    0.63   0
  11  -1   1   -0.05    0.75   0
  11   1   0   -0.11    0.83   0
  11   5   0    3.07    0.80   0
  11   8   2    2.33    0.47   0
   4   9  -1    6.13    0.62   0
   5   5  -2   74.36    0.90   0
   7   5  -2   17.05    0.69   0
   7  13   2   -0.47    1.03   0
  10   2  -1    0.97    0.85   0
  10   8   0   35.11    1.09   0
  11   2   0   32.40    1.25   0
  11   3   0   20.22    1.09   0
  11   4   0   73.13    1.51   0
  11   7   1    0.05    0.55   0
   6   2  -2    1.31    0.37   0
   6   4  -2    8.59    0.50   0
   6   5  -2    0.26    0.31   0
   7  -3  -1   44.98    0.84   0
   7   2  -2   62.04    0.90   0
   7   3  -2   21.05    0.65   0
   7   4  -2   92.47    1.13   0
   7   9  -1    0.21    0.74   0
   9  -1  -1    0.67    0.69   0
   9   7  -1    9.20    0.87   0
  10   9   1    4.83    0.65   0
  11   6   1    1.17    0.60   0
  11   7   2    0.08    0.50   0
   5   9  -1   49.13    1.00   0
   6   3  -2   30.54    0.64   0
   7  12   1    4.67    1.12   0
   8  -2  -1    8.89    0.68   0
   8   8  -1    8.51    0.82   0
   8  10   0    7.77    1.08   0
   8  12   2    3.55    0.82   0
   9   9   0    9.60    0.91   0
   9  11   2    1.07    0.65   0
  10  -1   0    6.25    0.93   0
   5  11   0   51.84    1.31   0
   6  11   0   46.03    1.25   0
   8  12   3    9.85    0.80   0
   9  10   1    1.46    0.74   0
  10   9   2   -0.12    0.50   0
  10   9   3   -0.13    0.48   0
  11   0   2   22.24    0.94   0
  11   1   1    0.71    0.73   0
  11   4   1   -0.15    0.72   0
  11   5   1    6.05    0.73   0
  11   6   2   11.62    0.68   0
   4   8  -1   15.89    0.60   0
   8   7  -1    5.62    0.77   0
   9   1  -1    0.51    0.68   0
   9   4  -1   -0.49    0.67   0
   9   5  -1   71.85    1.37   0
  10   0   0   59.10    1.39   0
  10   6   0   28.44    1.12   0
  10   8   1    0.72    0.60   0
  11   1   2    0.05    0.80   0
  11   1   3    1.97    0.68   0
  11   3   1   10.97    0.86   0
  11   5   2    0.11    0.59   0
  11   5   3    5.36    0.61   0
   6   8  -1    3.88    0.63   0
   7  -2  -1   20.95    0.65   0
   8  -1  -1    4.55    0.62   0
   9   2  -1   46.40    1.12   0
   9   3  -1  124.44    1.65   0
  10   5   0    0.47    0.85   0
  11   2   2    2.81    0.76   0
  11   2   3    0.62    0.66   0
  11   3   2    0.45    0.66   0
  11   4   2    1.61    0.65   0
  11   4   3    1.72    0.59   0
   5  12   1    0.13    0.86   0
   7   7  -1   73.26    1.24   0
   7  12   2   14.01    1.17   0
   8   6  -1   44.82    1.09   0
   8   9   0    0.22    0.82   0
   9  -2   0   -0.26    0.77   0
   9   9   1    4.45    0.77   0
   9  10   2    2.42    0.63   0
   9  10   3    1.40    0.64   0
  10   4   0    1.22    0.87   0
  10   8   2    2.85    0.56   0
  10   8   3    2.07    0.53   0
   6  10   0   42.16    1.19   0
   8  10   1   10.31    0.94   0
  10  -1   1    0.80    0.80   0
   4  10   0  143.17    1.50   0
   5  10   0  108.95    1.51   0
   6   7  -1   82.28    1.19   0
   7  -1  -1    7.98    0.52   0
   7   6  -1    2.11    0.59   0
   7  12   3    4.85    0.97   0
   7  12   4   15.81    0.96   0
   8   3  -1   40.93    0.94   0
   8   4  -1   13.47    0.75   0
   8   8   0   35.00    1.17   0
   8  11   4    0.73    0.61   0
   9  -1   0   27.47    1.04   0
  10   6   1    0.80    0.69   0
   7   9   0   46.29    1.24   0
   9   8   1    1.06    0.72   0
   9   9   2    0.29    0.63   0
   9   9   4    0.92    0.49   0
  10   5   1    0.64    0.76   0
  10   6   4    3.26    0.54   0
   6   6  -1   42.44    0.86   0
   6  11   1   10.14    0.98   0
   7   5  -1    5.13    0.58   0
   9   0   0    0.39    0.77   0
   9   5   0   23.24    1.06   0
   9   9   3   14.59    0.74   0
  10  -1   2    4.89    0.81   0
  10   2   1    2.61    0.87   0
  10   3   1   39.28    1.27   0
  10   4   1   11.40    0.95   0
  10   6   2    0.97    0.62   0
   5   6  -1    7.12    0.49   0
   6   9   0    2.27    0.76   0
   7   1  -1    8.03    0.51   0
   7  11   2   -0.07    0.88   0
   8  -2   0   27.46    0.92   0
   8   7   0   21.01    0.98   0
   8  10   2    1.54    0.74   0
   9   1   0   26.26    1.06   0
   9   2   0   -0.11    0.80   0
   9   3   0    0.67    0.77   0
   9   4   0   -0.21    0.77   0
   9   7   1   11.72    0.86   0
  10  -1   3   -0.22    0.74   0
  10   0   2   34.98    1.21   0
  10   0   4   15.81    0.88   0
  10   5   2    0.96    0.65   0
  10   5   4   10.74    0.69   0
  10   6   3    1.90    0.58   0
   3   9   0   11.16    0.56   0
   5  11   1    3.44    0.87   0
   6   5  -1  110.06    1.20   0
   7   8   0   65.48    1.32   0
   7  11   5    0.50    0.56   0
   8  10   4    0.19    0.66   0
   9  -2   1   24.93    1.03   0
   9   8   2    0.77    0.61   0
   9   8   4    6.67    0.68   0
  10   1   2    5.74    1.00   0
  10   1   4    1.32    0.80   0
  10   4   2   11.44    0.86   0
  10   4   4    0.85    0.61   0
  10   5   3    1.11    0.64   0
   4   9   0   22.79    0.75   0
   4  11   1   13.33    0.87   0
   5   5  -1  150.29    1.25   0
   5   9   0   74.51    1.24   0
   7  -3   0   13.13    0.68   0
   8  -1   0   10.32    0.85   0
   8   6   0   17.28    0.93   0
   8  10   3    6.02    0.71   0
   9   8   3    5.39    0.64   0
  10   1   3   -0.25    0.84   0
  10   2   2   28.22    1.08   0
  10   2   4    9.39    0.78   0
  10   3   2    6.12    0.83   0
  10   3   4   -0.23    0.64   0
  10   4   3   -0.20    0.64   0
   6   1  -1   12.29    0.49   0
   6   2  -1  210.59    1.42   0
   6   3  -1  137.00    1.21   0
   6   8   0   19.06    0.84   0
   6  12   4    3.54    0.89   0
   7  11   3    0.11    0.77   0
   7  11   4    4.08    0.76   0
   8   5   0   31.17    1.02   0
   8   8   1    0.18    0.74   0
   8   9   2   -0.42    0.70   0
   8   9   5   12.82    0.66   0
   9  -1   1   71.21    1.41   0
   9   7   2    0.55    0.62   0
  10   3   3    0.36    0.69   0
   5   4  -1  134.84    1.13   0
   6  11   2    8.70    1.02   0
   7   9   1    1.71    0.83   0
   7  10   2   23.15    1.07   0
   8   4   0   48.69    1.13   0
   5   8   0   20.33    0.76   0
   5  12   3    1.58    1.14   0
   7  -2   0   33.78    0.81   0
   8   1   0   11.96    0.78   0
   8   2   0   25.95    0.91   0
   8   3   0    0.12    0.65   0
   8   7   1    9.84    0.87   0
   8   9   3    6.10    0.71   0
   8   9   4    0.25    0.59   0
   9   1   1   71.08    1.49   0
   9   3   1   35.40    1.23   0
   9   4   1   12.37    0.96   0
   9   6   2    2.68    0.70   0
   9   7   3    3.71    0.62   0
   4   8   0  172.43    1.47   0
   5  10   1    0.50    0.77   0
   6   7   0   71.12    1.18   0
   7  10   5    0.21    0.59   0
   8   8   2    9.28    0.79   0
   9   2   1   26.63    1.15   0
   9   5   5    1.29    0.58   0
   9   6   4   14.70    0.78   0
   4  10   1   20.33    0.88   0
   5  11   2    1.99    0.92   0
   5  12   4    1.05    1.06   0
   5  12   5    0.91    0.84   0
   6  11   3    1.97    0.93   0
   8  -2   1    6.11    0.90   0
   8   6   1   20.37    0.98   0
   8   8   5    0.78    0.54   0
   9  -2   3   22.77    0.99   0
   9   4   5    4.24    0.65   0
   9   5   2    2.67    0.74   0
   9   6   3    0.92    0.61   0
   6  11   4    5.26    0.97   0
   6  11   5    1.56    0.69   0
   7  -1   0   34.18    0.81   0
   8   8   3    0.44    0.61   0
   8   8   4   10.20    0.81   0
   9  -1   4    4.14    0.93   0
   9   1   5    4.87    0.76   0
   9   3   5   18.73    0.85   0
   9   4   2    0.64    0.76   0
   9   5   3   13.11    0.81   0
   9   5   4    6.26    0.72   0
   4  11   2    0.40    0.95   0
   5   7   0   49.40    0.92   0
   7   4   0   34.13    0.89   0
   8  -1   1   22.83    1.06   0
   8   5   1   65.64    1.35   0
   8   7   2   23.67    0.95   0
   9  -1   3   -0.57    0.80   0
   9   4   4   10.10    0.78   0
   5  11   6    3.70    0.80   0
   6  10   6    9.20    0.68   0
   7   1   0   35.81    0.85   0
   7   2   0   33.84    0.83   0
   7   3   0   13.76    0.66   0
   7   7   1   67.62    1.33   0
   7   9   5    0.01    0.58   0
   8   4   1    0.85    0.75   0
   8   5   6    0.08    0.61   0
   8   7   5   16.60    0.75   0
   9   0   4    1.07    0.79   0
   9   3   3   39.56    1.15   0
   9   3   4    0.55    0.68   0
   5  11   3   63.76    1.53   0
   6   5   0    0.18    0.47   0
   6   8   1   15.06    0.88   0
   7  -3   1   24.69    0.93   0
   7   8   2    3.60    0.76   0
   7   8   6    6.80    0.62   0
   7   9   3   -0.56    0.67   0
   7   9   4    3.44    0.78   0
   8   1   1   22.56    0.97   0
   8   2   1    6.01    0.83   0
   8   3   1   35.61    1.14   0
   8   7   3   23.02    0.88   0
   8   7   4    1.70    0.62   0
   9   2   3   25.40    1.05   0
   9   2   4    0.03    0.71   0
   4   9   1   16.75    0.78   0
   5  10   2   14.55    1.00   0
   6   9   2    5.91    0.84   0
   8  -1   6    0.34    0.73   0
   8   4   6    1.02    0.59   0
   5  11   5    4.82    0.84   0
   8  -2   2   -0.30    0.73   0
   8   0   6    3.27    0.73   0
   8   3   6    1.02    0.63   0
   8   5   2    0.07    0.66   0
   3   9   1    8.50    0.60   0
   5   5   0   -0.15    0.40   0
   5   8   1   51.86    1.09   0
   6   0   0    0.35    0.39   0
   6   1   0    8.25    0.46   0
   6   2   0   44.54    0.77   0
   6   3   0   46.40    0.82   0
   6   7   1  150.20    1.71   0
   6   9   6    0.08    0.59   0
   7  -2   1    0.02    0.62   0
   7   7   2   14.94    0.83   0
   7   7   6   -0.19    0.56   0
   7   8   3    3.36    0.70   0
   7   8   5    1.17    0.62   0
   8  -2   5    2.20    0.95   0
   8  -1   2    4.46    0.79   0
   8   1   6    0.53    0.68   0
   8   2   6    0.30    0.66   0
   8   4   2    0.14    0.72   0
   8   5   5    4.48    0.67   0
   7   8   4    2.09    0.66   0
   8   5   4    3.11    0.66   0
   5   4   0  213.76    1.45   0
   5  10   3    1.81    0.84   0
   5  10   6    5.86    0.75   0
   6   6   1   84.57    1.27   0
   6   8   2   29.74    1.03   0
   7   4   1    9.76    0.60   0
   8  -2   4    0.30    0.78   0
   8  -1   5   12.67    0.91   0
   8   2   2   -0.21    0.76   0
   8   4   3   -0.06    0.64   0
   8   4   5    1.12    0.65   0
   3  10   2  180.31    1.77   0
   6   7   7    0.69    0.53   0
   6   9   4   -0.03    0.68   0
   6   9   5   -0.27    0.64   0
   7   1   1    7.75    0.69   0
   7   2   1   -0.64    0.61   0
   7   2   7   -0.01    0.66   0
   7   3   1   20.99    0.84   0
   7   7   5    9.85    0.73   0
   8  -1   3   43.39    1.17   0
   8   3   5    4.56    0.73   0
   8   4   4    1.34    0.71   0
   4  10   7    0.11    0.61   0
   4  11   5   17.13    1.07   0
   5   3   0   12.02    0.40   0
   5   7   1  307.98    2.16   0
   5  10   4    9.10    0.93   0
   5  10   5    0.71    0.79   0
   6  -3   1    1.16    0.50   0
   6   8   6    4.41    0.66   0
   7  -3   2    0.09    0.64   0
   7   1   7    1.43    0.51   0
   7   1   7    0.52    0.36   0
   7   7   4    2.96    0.65   0
   8   0   4    2.38    0.93   0
   8   1   3   42.59    1.17   0
   8   2   3   69.93    1.40   0
   8   3   4   38.31    1.12   0
   3   8   1   39.07    0.79   0
   6   5   1   32.92    0.87   0
   6   7   2   12.58    0.79   0
   6   8   3    0.27    0.65   0
   7   5   6    0.09    0.59   0
   7   6   3    3.36    0.65   0
   7   6   5    0.32    0.63   0
   8   1   4   13.85    0.92   0
   8   2   4   -0.04    0.70   0
   4   9   2   19.71    0.89   0
   4  10   3    2.04    0.84   0
   5   8   2   23.21    0.90   0
   5   9   3   12.06    0.99   0
   6   6   7    0.75    0.53   0
   6   8   5   20.63    0.89   0
   7  -2   6    1.30    0.89   0
   7   4   6    3.84    0.66   0
   3  11   4   57.56    1.44   0
   3  11   6   12.41    0.97   0
   4   7   1   23.00    0.70   0
   5   6   1   -0.24    0.48   0
   5   8   7    2.69    0.59   0
   6  -2   1   44.78    0.84   0
   6   7   6    0.98    0.62   0
   6   8   4   15.16    0.84   0
   7   3   2   -0.33    0.66   0
   7   5   5    9.46    0.77   0
   3  11   5    4.57    1.11   0
   4  10   6   12.85    0.89   0
   6   3   1    0.98    0.51   0
   6   5   7   -0.04    0.56   0
   6   6   2   56.89    1.11   0
   6   7   3    7.10    0.67   0
   7  -3   3    0.40    0.64   0
   7  -3   5    3.85    0.84   0
   7  -1   2   20.27    0.88   0
   7  -1   6    6.27    0.82   0
   7   2   2  209.88    2.02   0
   7   2   6    2.13    0.81   0
   7   3   6   12.73    0.83   0
   7   5   4   -0.35    0.64   0
   3   9   2    2.06    0.64   0
   3   9   8    4.74    0.63   0
   3  10   7    0.55    0.80   0
   4  10   4    4.48    0.87   0
   4  10   5    4.41    0.87   0
   5   5   1  172.48    1.47   0
   6   1   1  248.11    1.79   0
   6   2   1   47.41    0.93   0
   6   7   5    0.54    0.60   0
   7  -3   4   -0.26    0.74   0
   7   0   6    1.67    0.79   0
   7   1   2   22.21    0.92   0
   7   1   6    6.16    0.80   0
   7   4   3    1.01    0.63   0
   3  10   3  490.94    3.06   0
   5   7   2   42.39    0.98   0
   5   7   7   13.41    0.75   0
   5   8   3    0.74    0.64   0
   5   8   6    1.38    0.75   0
   6   4   7    0.10    0.56   0
   6   5   2   53.34    1.05   0
   6   6   6    0.79    0.63   0
   7  -2   3   19.37    0.87   0
   7  -2   5    0.74    0.79   0
   7   3   3    0.07    0.62   0
   7   3   5    3.84    0.71   0
   7   4   4   39.98    1.09   0
   2   9   2   42.71    0.93   0
   4   7   8   -0.04    0.51   0
   4   9   3   17.84    0.92   0
   6  -2   7    0.61    0.75   0
   6   3   7    0.84    0.61   0
   6   6   3    0.70    0.57   0
   7  -2   4    3.36    0.77   0
   7  -1   3  118.21    1.54   0
   7   2   3   20.44    0.89   0
   7   2   5    0.37    0.72   0
   5   4   1    0.45    0.42   0
   5   4   8    0.38    0.53   0
   5   8   4    3.68    0.68   0
   5   8   5    0.58    0.65   0
   6  -3   2   35.75    0.84   0
   6   2   7    0.73    0.63   0
   6   4   2  123.42    1.43   0
   7  -1   4    0.24    0.72   0
   7   1   3  105.63    1.49   0
   7   1   5    2.52    0.77   0
  -1  11   3   21.49    1.11   0
   0  11   3   22.54    1.18   0
   0  12   7    1.45    1.11   0
   1  12   5    0.39    1.22   0
   1  12   6    0.22    1.12   0
   4   9   6    5.30    0.86   0
   5   6   2    0.52    0.60   0
   5   8   4    2.48    0.76   0
   5   8   5   -0.11    0.75   0
   6   5   3    4.77    0.79   0
  -1  12   4   22.89    1.32   0
   0  12   4    6.33    1.19   0
   1   8   1  610.05    2.80   0
   1  10   2    4.37    0.78   0
   1  11   8   -0.15    0.86   0
   2  10   8    3.71    0.75   0
   2  11   7    1.56    0.91   0
   3   7   1   57.43    1.01   0
   3  10   7    0.57    0.79   0
   4   8   2   54.12    1.23   0
   5   6   7    0.03    0.74   0
   6   3   2   30.89    0.91   0
  -2  11   3  169.92    1.95   0
   1  12   4    8.26    1.28   0
   1  12   7    0.55    0.95   0
   2   8   1  171.13    1.63   0
   3   9   8    4.45    0.71   0
   4   6   1  203.08    1.66   0
   4   7   8    0.10    0.67   0
   5   8   3    1.76    0.73   0
   5   8   6    1.28    0.89   0
   6   6   5   25.18    1.03   0
  -2  13   6    2.41    1.34   0
  -1  13   6    0.78    1.24   0
   2  10   2   46.52    1.28   0
   2  12   5    2.43    1.17   0
   2  12   6   11.42    1.20   0
   4   9   7    2.83    0.74   0
   4  10   6    8.83    0.91   0
   5   4   1    0.14    0.47   0
   5   7   2   41.85    1.07   0
   6   4   2  113.87    1.45   0
   6   5   6    6.90    0.89   0
   6   6   3    0.34    0.65   0
  -2  13   7    8.92    1.36   0
  -1  13   5   11.12    1.36   0
  -1  13   7    0.66    1.29   0
   0  12   8    0.10    0.83   0
   0  13   5    4.91    1.29   0
   4  10   3    1.64    0.91   0
   5   9   5   47.15    1.29   0
   0  13   7    6.78    1.28   0
   1  12   3    4.30    1.11   0
   3  10   2  202.84    2.35   0
   3  11   3   47.05    1.56   0
   3  11   7    0.24    0.86   0
   6   6   6    0.77    0.78   0
   6   7   5    0.66    0.74   0
  -1  12   3    6.63    1.01   0
   1  11   2   83.91    1.61   0
   2   9   1  313.75    2.33   0
   2  12   7    3.61    0.92   0
   3  12   5   -0.67    1.06   0
   4  11   4    2.01    1.01   0
   5   8   2   23.27    1.00   0
   5   9   6    3.95    0.79   0
  -1  13   4   17.83    1.32   0
   1  13   4    7.74    1.33   0
   2  11   2  139.01    2.06   0
   2  12   3    8.00    1.20   0
   2  13   5    8.69    1.28   0
   4  10   7   -0.03    0.69   0
   4  11   6    1.29    0.81   0
   5   6   1   -0.04    0.55   0
   5   8   7    2.90    0.73   0
   5  10   5    0.76    0.80   0
   1  13   7    0.59    0.94   0
   2  13   6    4.49    1.11   0
   3   9   1   10.28    0.80   0
   4  10   2   16.81    1.09   0
   4  11   3   -0.78    0.99   0
   6   8   3    1.17    0.72   0
   7   5   4   -0.38    0.80   0
  -1  14   6    9.28    1.25   0
   2  13   4  104.57    2.31   0
   3  11   2    8.28    1.08   0
   5   9   2    0.90    0.79   0
   5  10   3    0.43    0.81   0
   5  10   6    4.80    0.78   0
   6   3   1    0.51    0.57   0
   7   5   3    3.14    0.79   0
  -1  14   5    1.59    1.20   0
   0  13   3   -1.48    1.25   0
   0  14   5    3.95    1.30   0
   1  10   1    0.22    0.65   0
   1  13   3   32.28    1.50   0
   2  10   1    2.45    0.72   0
   3  12   7    0.24    0.73   0
   3  13   5   -0.13    1.02   0
   4  12   4   20.72    1.26   0
   4  12   5    0.48    0.94   0
   6   9   4    0.99    0.73   0
   7   6   3    2.32    0.87   0
   7   6   4   41.68    1.17   0
  -1  14   7    1.71    1.07   0
   0  10   1  165.91    1.73   0
   1  12   2   -0.42    0.92   0
   1  14   5    0.79    1.21   0
   1  14   6   -0.55    1.10   0
   2  13   3   54.37    1.78   0
   2  13   7    8.63    0.92   0
   4   9   1   17.53    0.93   0
   4  11   7   12.29    0.83   0
   5  11   4   10.71    0.99   0
   5  11   5    4.21    0.86   0
   6   5   1   37.72    1.00   0
   6   8   2   27.84    1.06   0
   7   4   2   85.85    1.46   0
  -1  13   3    1.97    1.04   0
   0  12   2   15.63    1.06   0
   0  14   4    5.77    1.28   0
   0  14   7    0.33    0.99   0
   2  12   2  111.94    2.02   0
   3  10   1   96.29    1.59   0
   3  13   6    4.08    0.94   0
   4   6   0   14.42    0.60   0
   4  12   6    8.28    0.88   0
   5  10   2   11.84    1.02   0
   7   5   2   26.52    1.05   0
  -1  14   4   24.43    1.42   0
   2  14   5    7.69    1.22   0
   2  14   6    5.30    1.20   0
   3  12   2  324.06    3.26   0
   3  13   3   41.73    1.70   0
   5  11   6    3.91    0.73   0
   6   9   6    0.68    0.78   0
   6  10   4    3.93    0.82   0
   7   6   2   12.73    1.02   0
   1  11   1  232.12    2.24   0
   1  14   7    2.03    0.87   0
   2   8   0   55.44    0.95   0
   2  11   1   19.05    1.02   0
   4   7   0   83.10    1.15   0
   4  10   1   20.63    1.08   0
   4  13   5    1.31    0.92   0
   5   5   0   -0.01    0.46   0
   5   9   1  107.97    1.71   0
   5  12   4    0.95    0.88   0
   6   7   1  159.26    1.87   0
   6   9   2    6.40    0.85   0
   6  10   3   43.91    1.25   0
   6  10   5    1.36    0.74   0
   7   8   4    2.22    0.78   0
   3   8   0  196.14    1.67   0
   3  11   1   15.03    1.05   0
   3  14   5    5.95    1.10   0
   5  11   2    1.87    0.98   0
   5  12   5    1.48    0.80   0
   7   7   2   15.32    0.94   0
   7   8   3    2.67    0.75   0
  -1  15   5    2.22    1.33   0
  -1  15   6    2.09    1.14   0
   0  11   1   62.22    1.26   0
   0  15   5   -0.40    1.20   0
   0  15   6    5.68    1.17   0
   1  13   2    0.79    1.05   0
   1  14   3   39.03    1.65   0
   2  13   2   61.75    1.77   0
   2  14   3   42.49    1.75   0
   3  14   4   26.14    1.52   0
   4  12   2    0.83    0.80   0
   4  13   3    0.21    1.16   0
   4  13   6    0.45    0.71   0
   5   6   0   23.90    0.73   0
   6   8   1   17.04    1.00   0
   6  11   4    4.33    0.82   0
   7   8   5    1.14    0.77   0
   3  13   2   33.21    1.54   0
   3  14   6    4.47    0.91   0
   5   7   0   54.85    1.05   0
   5  10   1    0.38    0.88   0
   5  12   6    0.79    0.75   0
   6  10   6    9.60    0.79   0
   6  11   3    1.88    0.85   0
   6  11   5    0.93    0.72   0
   7   4   1   12.40    0.88   0
   7   9   4    3.82    0.79   0
  -1  14   3    9.94    1.19   0
   0  15   4    0.17    1.22   0
   1   9   0  137.70    1.42   0
   2  12   1    3.44    0.94   0
   2  15   5    2.19    1.13   0
   3  14   3  105.14    2.28   0
   6   9   1    6.37    0.91   0
   7   6   1    1.08    0.97   0
   7   9   5   -0.53    0.79   0
  -1  15   4    1.07    1.11   0
   1  12   1    4.66    0.91   0
   2  15   4    2.82    1.24   0
   2  15   6    0.73    0.90   0
   4  14   4    1.20    1.04   0
   5   8   0   22.18    0.88   0
   5  13   4    0.51    0.86   0
   6   4   0   34.51    0.82   0
   6   5   0    0.28    0.56   0
  -1  11   1    7.60    0.74   0
   2  10   0   -0.24    0.62   0
   4  14   3   49.55    1.71   0
   5  11   1    3.79    1.03   0
   5  13   3    4.10    1.04   0
   6  12   4    3.28    0.80   0
   7  10   4    7.38    0.79   0
   0  12   1    0.77    0.82   0
   1  10   0   82.20    1.25   0
   1  15   3    1.60    1.24   0
   3  15   4   -0.02    1.12   0
   3  15   5    0.50    0.96   0
   4  12   1    0.05    1.01   0
   5   9   0   78.74    1.43   0
   6   7   0   67.80    1.26   0
   6  12   5    0.76    0.69   0
   7  10   5    0.23    0.76   0
   0  14   2   16.51    1.25   0
   0  16   5   13.06    1.38   0
   1  16   5    2.13    1.27   0
   2  13   1   -0.34    0.96   0
   3  14   2    8.19    1.28   0
   5  13   2   32.78    1.46   0
   7  10   2   23.66    1.05   0
   8   6   2   70.78    1.45   0
   1  16   4    1.83    1.35   0
   2  11   0    1.71    0.75   0
   3  11   0   30.92    1.12   0
   4  14   2    7.61    1.27   0
   5  12   1    0.98    1.05   0
   5  14   4    1.66    0.87   0
   7   9   1    0.77    0.88   0
   7  11   3   -0.05    0.71   0
   8   8   3    0.06    0.78   0
  -1  12   1  141.54    1.79   0
   0  10   0   37.00    0.91   0
   2  16   4    8.86    1.33   0
   2  16   5    1.74    1.08   0
   4  11   0  123.49    1.89   0
   4  15   4   43.29    1.52   0
   4  15   5    1.89    0.85   0
   5  10   0  116.60    1.79   0
   5  14   5    4.87    0.79   0
   6  11   1    7.81    1.04   0
   6  13   3    0.72    0.85   0
   6  13   4    0.58    0.74   0
   8   8   2   10.93    0.93   0
   2  15   2   50.45    1.74   0
   4  15   3   29.46    1.48   0
   6   9   0    2.65    0.82   0
   7   5   0    9.07    0.82   0
   7   6   0   31.70    1.07   0
   7  11   2    0.22    0.77   0
   7  11   5    1.02    0.65   0
   8   9   3    6.04    0.81   0
   8   9   4    0.29    0.82   0
   1  15   2    2.08    1.19   0
   1  16   3   20.06    1.55   0
   3   8  -1   26.36    0.75   0
   3  15   2    2.11    1.22   0
   3  16   4   17.88    1.33   0
   5  11   0   68.56    1.61   0
   6  13   2   10.72    1.09   0
   7   7   0    2.48    0.85   0
   7  12   3    5.10    0.80   0
   7  12   4   16.48    0.86   0
   8   6   1   20.04    1.13   0
   8   7   1    8.32    1.14   0
   8   9   2    0.57    0.78   0
   2   8  -1   31.84    0.77   0
   2  12   0   22.13    1.10   0
   3  14   1   11.74    1.30   0
   4   8  -1   16.64    0.71   0
   4  12   0  151.26    2.19   0
   5   6  -1    6.37    0.53   0
   5   7  -1   12.05    0.65   0
   6  10   0   41.99    1.33   0
   6  12   1   11.16    0.90   0
   7   8   0   64.64    1.48   0
   8  10   3    6.63    0.80   0
   0  16   3    0.05    1.13   0
   1  14   1   -0.09    1.04   0
   3   9  -1   65.42    1.12   0
   3  16   3   -0.38    1.13   0
   4  14   1    0.20    1.17   0
   4  15   2   11.30    1.32   0
   5   8  -1   54.05    1.08   0
   5  15   3    4.20    1.08   0
   6  14   3    6.10    0.91   0
   6  14   4    1.44    0.73   0
   7  11   1   25.68    1.19   0
   7  12   2   10.62    0.91   0
   8   8   1    0.23    0.89   0
   8  10   2    1.51    0.74   0
   8  10   4   -0.68    0.68   0
   2   9  -1   45.66    0.93   0
   4  16   4    3.03    1.00   0
   8   9   1    6.55    0.93   0
   0  14   1   40.70    1.38   0
   1  17   4    4.63    1.13   0
   2  13   0    0.41    0.92   0
   2  17   4    1.23    1.20   0
   3  10  -1    4.12    0.69   0
   3  13   0    1.01    0.99   0
   4  16   3   26.61    1.41   0
   5   9  -1   49.93    1.15   0
   5  14   1    1.74    1.16   0
   5  15   2    9.76    1.20   0
   6   6  -1   38.74    0.91   0
   6   7  -1   79.90    1.25   0
   6  13   1   20.93    1.27   0
   6  14   2    0.07    0.92   0
   7  13   3    0.72    0.69   0
   7  13   4    2.62    0.67   0
   8  11   3    1.78    0.72   0
   2  10  -1   43.49    1.00   0
   3  15   1    2.43    1.22   0
   4  13   0    4.76    1.09   0
   6   4  -1   97.70    1.13   0
   6   8  -1    4.01    0.73   0
   7  12   1    4.49    0.95   0
   7  13   2    0.01    0.77   0
   8  11   4    0.89    0.63   0
   0  12   0  253.05    2.23   0
   1   9  -1   88.16    1.14   0
   1  13   0   61.83    1.47   0
   2  17   3    2.98    1.17   0
   3  17   4    0.88    1.01   0
   4  15   1   25.66    1.49   0
   4  16   2    5.34    1.17   0
   5  10  -1   68.10    1.40   0
   6   9  -1   13.01    0.89   0
   6  15   3   10.55    0.92   0
   8   5   0   29.28    1.14   0
   8   7   0   23.32    1.19   0
   0  16   2   11.45    1.41   0
   1  17   3    6.21    1.18   0
   3  17   3   14.77    1.29   0
   4  11  -1    1.16    0.83   0
   5  16   3    0.81    0.95   0
   7  14   3    0.28    0.77   0
   8  11   1    4.79    0.86   0
   8  12   3   13.24    0.79   0
   2  11  -1   13.25    0.84   0
   3  14   0    7.03    1.13   0
   5  15   1   11.16    1.27   0
   6  15   2    0.26    0.90   0
   7  13   1    2.05    0.91   0
   7  14   2    7.57    0.97   0
   8   9   0    0.88    0.99   0
   9   9   2   -0.14    0.85   0
   0  15   1   23.69    1.29   0
   4  12  -1   24.76    1.17   0
   4  17   3    6.31    1.09   0
   5  14   0    5.12    1.12   0
   5  16   2    1.52    1.06   0
   6  13   0   26.64    1.34   0
   7   8  -1   14.91    0.94   0
   7  12   0   21.61    1.24   0
   9   8   1    1.36    1.07   0
   1  14   0    3.61    1.01   0
   2  16   1   30.05    1.49   0
   2  17   2   30.67    1.45   0
   3  16   1    1.28    1.13   0
   3  17   2    0.39    1.14   0
   4  16   1    3.76    1.16   0
   6  11  -1   97.77    1.79   0
   7   9  -1    0.91    0.83   0
   8  12   1    0.71    0.78   0
   9   9   1    5.17    1.01   0
   9  10   2    1.91    0.75   0
   1  11  -1    9.92    0.79   0
   2  12  -1    1.02    0.83   0
   3  15   0   11.78    1.23   0
   4  17   2    1.16    1.03   0
   7  10  -1   87.98    1.70   0
   7  14   1   -0.78    0.85   0
   8  11   0    1.91    1.07   0
   8  13   2    7.62    0.76   0
   3  13  -1   43.75    1.40   0
   4   6  -2  297.06    1.83   0
   4   7  -2  201.75    1.63   0
   4  13  -1    2.59    0.99   0
   4  15   0    3.54    1.17   0
   5   7  -2   33.32    0.83   0
   5  16   1    1.84    1.10   0
   6  12  -1    1.37    0.99   0
   7  15   2    4.33    0.88   0
   9  10   1    1.85    0.80   0
   9  11   2    0.81    0.74   0
   0  10  -1  169.61    1.56   0
   1  12  -1  169.98    1.98   0
   2  18   3    0.37    1.03   0
   3   7  -2   43.06    0.83   0
   3   8  -2   76.63    1.10   0
   4   9  -2   -0.26    0.58   0
   5   6  -2    2.77    0.50   0
   5   8  -2  338.22    2.34   0
   5  13  -1    0.69    1.00   0
   5  15   0   -0.15    1.11   0
   7  11  -1    0.37    0.92   0
   8   7  -1    5.63    0.94   0
   8  13   1    0.89    0.74   0
   9   7   0   57.73    1.52   0
   0  14   0  104.10    1.71   0
   2  13  -1    1.74    0.90   0
   3   9  -2   98.04    1.32   0
   5   9  -2    2.09    0.66   0
   5  17   2    4.27    1.01   0
   6   6  -2   92.75    1.22   0
   6   7  -2  259.00    2.03   0
   6   8  -2   20.84    0.85   0
   8   5  -1    6.07    0.85   0
   8  14   2    3.44    0.73   0
   9   9   0    9.93    1.07   0
   9  11   1    5.83    0.78   0
   0  11  -1   63.07    1.14   0
   2  17   1    1.02    1.11   0
   3  10  -2   12.38    0.76   0
   4  10  -2    0.82    0.67   0
   4  17   1    1.62    1.12   0
   6   9  -2    1.85    0.72   0
   6  13  -1   37.73    1.44   0
   6  16   1    1.63    0.99   0
   7  15   1    1.58    0.82   0
   9  12   2    0.59    0.67   0
   2   8  -2   41.49    0.83   0
   2   9  -2    0.52    0.52   0
   2  18   2    7.48    1.13   0
   3  14  -1   80.70    1.78   0
   3  16   0    5.01    1.18   0
   3  18   2    0.51    1.01   0
   4  11  -2   18.19    0.97   0
   4  16   0    0.76    1.10   0
   5  14  -1   37.78    1.49   0
   6  10  -2   30.92    1.12   0
   8  13   0   12.35    0.95   0
   8  14   1    0.66    0.69   0
   9  10   0    4.29    0.90   0
   9  12   1   -0.41    0.73   0
   1  13  -1    3.77    0.89   0
   1  17   1    0.80    1.09   0
   2  16   0   -0.41    1.10   0
   3  11  -2   66.90    1.35   0
   4  18   2   10.03    1.06   0
   5  16   0    3.70    1.14   0
   5  17   1    1.69    1.02   0
   7   7  -2    0.65    0.67   0
   7   8  -2   32.48    1.06   0
   7  13  -1    0.65    0.98   0
   8  11  -1    1.13    0.95   0
   9  11   0    0.12    0.82   0
   2  10  -2   24.28    0.86   0
   4  12  -2   90.53    1.67   0
   5  12  -2    4.34    0.90   0
   6  11  -2    0.50    0.86   0
   7   9  -2   25.18    1.03   0
   7  15   0    0.18    0.90   0
   1  16   0    1.88    1.09   0
   2  11  -2   21.46    0.91   0
   3  15  -1   28.36    1.37   0
   4  15  -1    1.14    1.07   0
   5  15  -1   47.26    1.58   0
   6  16   0   -0.45    0.97   0
   7  10  -2    8.57    0.90   0
   7  16   1    7.74    0.87   0
   8  12  -1    3.41    0.97   0
   8  14   0    0.38    0.77   0
   9   6  -1   42.43    1.48   0
   9  13   1    4.80    0.71   0
   1   8  -2   70.11    0.98   0
   1  14  -1   14.23    1.10   0
   3  18   1    5.19    1.09   0
   4  17   0    1.71    1.06   0
   4  18   1    5.25    1.17   0
   6  17   1    1.24    0.86   0
   7  11  -2    0.93    0.90   0
   7  14  -1    1.13    0.98   0
   8  15   1    1.03    0.65   0
   9  10  -1    1.82    1.14   0
   0  13  -1   37.18    1.24   0
   2  12  -2   72.44    1.39   0
   2  18   1    0.68    1.03   0
   4  13  -2    0.99    0.88   0
   5  13  -2    7.54    1.06   0
   5  17   0   46.91    1.51   0
   6  15  -1    0.44    1.00   0
   7   4  -2  103.56    1.30   0
   8   9  -2    4.56    0.92   0
   8  13  -1    0.79    0.90   0
   1  10  -2  150.57    1.58   0
   2  17   0   23.75    1.33   0
   3  13  -2    7.06    0.97   0
   4  16  -1   16.53    1.25   0
   5  18   1   -0.05    0.89   0
   7  16   0    2.91    0.89   0
   1  11  -2    0.27    0.66   0
   5  14  -2    7.11    1.06   0
   5  16  -1    1.45    1.04   0
   6  17   0    5.50    0.93   0
   7  15  -1   20.12    1.17   0
   8  11  -2    9.93    1.02   0
   8  15   0    5.63    0.78   0
   9  14   1    0.60    0.58   0
   1  15  -1   29.37    1.28   0
   3  14  -2   -0.29    0.91   0
   4   9  -3  139.33    1.60   0
   5   7  -3    1.12    0.53   0
   5   8  -3   27.48    0.87   0
   5   9  -3   34.24    1.00   0
   6   8  -3   24.76    0.89   0
   6  14  -2    3.72    1.04   0
   6  16  -1    3.99    1.02   0
   7   3  -2   25.01    0.80   0
   7  13  -2    0.62    0.94   0
   8  14  -1    0.18    0.84   0
   0  14  -1   40.38    1.21   0
   1  12  -2   88.05    1.44   0
   2  16  -1    0.41    1.04   0
   3  18   0   18.40    1.29   0
   4   6  -3  256.96    1.76   0
   4  10  -3    0.19    0.69   0
   5   6  -3    1.25    0.49   0
   6   9  -3  111.37    1.57   0
   6  10  -3   10.90    0.87   0
   8  12  -2   10.69    1.03   0
   9   8  -2   -0.73    1.08   0
   9  14   0    0.21    0.62   0
  10  11   0    1.26    0.69   0
   3   8  -3   84.11    1.17   0
   3   9  -3  155.76    1.63   0
   4  11  -3    1.65    0.75   0
   4  15  -2    2.93    1.01   0
   4  17  -1    3.78    1.18   0
   5   5  -3    5.20    0.50   0
   5  11  -3    0.68    0.78   0
   5  15  -2   16.62    1.19   0
   5  18   0    2.35    0.93   0
   6   6  -3    1.19    0.41   0
   6  11  -3   46.97    1.28   0
   7   7  -3    4.23    0.68   0
   7   8  -3    0.58    0.69   0
   7   9  -3   21.39    0.96   0
   9   7  -2   -0.71    0.92   0
   9   9  -2    4.59    1.01   0
   9  13  -1    7.20    0.85   0
  10   9  -1    2.18    1.09   0
   0   9  -2   40.37    0.82   0
   2  14  -2    7.55    1.00   0
   2  18   0    0.25    1.10   0
   3   7  -3   94.97    1.09   0
   3  10  -3   11.10    0.78   0
   3  15  -2    8.31    1.24   0
   3  17  -1    3.92    1.06   0
   4   5  -3  213.53    1.54   0
   5  12  -3   -0.05    0.82   0
   5  17  -1    0.15    0.99   0
   6  15  -2    4.96    1.02   0
   8  13  -2    4.46    0.95   0
   8  15  -1    7.16    0.88   0
  10  10  -1   18.64    1.06   0
  10  12   0    0.51    0.61   0
   0  10  -2    0.48    0.56   0
   1  13  -2   35.80    1.17   0
   1  16  -1    3.21    1.03   0
   3  11  -3    8.41    0.83   0
   4  12  -3   16.18    1.01   0
   6  17  -1    0.72    0.87   0
  10  11  -1    5.83    0.93   0
   2   8  -3   41.42    0.84   0
   2  17  -1    7.36    1.17   0
   5   4  -3   13.88    0.59   0
   7  12  -3   16.91    1.06   0
   8   8  -3   76.32    1.45   0
   8   9  -3    8.39    0.90   0
   9  12  -2    1.68    0.89   0
   9  14  -1    0.46    0.64   0
   2  10  -3   51.62    1.08   0
   2  15  -2   16.43    1.13   0
   3  12  -3    4.47    0.81   0
   4  13  -3    3.26    0.92   0
   4  16  -2   -0.35    0.95   0
   5  16  -2   10.52    1.06   0
   6  13  -3    7.93    0.99   0
   6  16  -2    5.84    1.13   0
   8   6  -3    6.17    0.78   0
   8  11  -3   24.12    1.11   0
   8  16  -1    0.59    0.78   0
  10  12  -1    1.21    0.69   0
   1  14  -2    9.85    0.98   0
   2   6  -3  301.27    1.73   0
   2  11  -3  217.07    2.03   0
   3  16  -2   14.08    1.15   0
   4  18  -1   11.25    1.03   0
   7  13  -3   25.71    1.19   0
   7  17  -1    4.71    0.84   0
   9  13  -2    9.07    0.90   0
   3  13  -3    3.12    0.87   0
   3  18  -1    2.70    1.05   0
   3  19   0    1.02    0.86   0
   5  18  -1   11.07    0.97   0
   6  14  -3   14.38    1.09   0
   7  16  -2   -0.77    0.79   0
   8  12  -3    3.77    0.87   0
   8  15  -2    5.68    0.84   0
   9  15  -1    0.61    0.59   0
  10  10  -2    1.68    0.93   0
  10  13  -1    2.70    0.66   0
   0  13  -2    3.26    0.92   0
   5  17  -2   21.67    1.24   0
   6  18  -1    0.55    0.79   0
   9  14  -2    3.19    0.85   0
  10  11  -2    1.12    0.85   0
   2  16  -2   14.18    1.09   0
   5  15  -3    7.72    1.00   0
   6   8  -4   62.28    1.18   0
   6   9  -4    1.74    0.69   0
   6  17  -2    0.04    0.81   0
   9  11  -3    8.61    0.94   0
   1  10  -3  117.53    1.41   0
   2  13  -3   34.50    1.16   0
   3  17  -2   74.05    1.57   0
   4  15  -3    9.44    1.03   0
   5   7  -4   10.74    0.67   0
   5   8  -4    2.18    0.47   0
   5  10  -4    1.32    0.71   0
   5  11  -4    7.12    0.81   0
   6   7  -4    2.25    0.62   0
   6  10  -4    0.13    0.71   0
   6  11  -4    4.34    0.82   0
   6  15  -3    2.80    0.88   0
   7   9  -4   13.44    0.85   0
   9  12  -3    0.88    0.79   0
   4   8  -4   87.95    1.27   0
   4   9  -4    2.56    0.48   0
   5   6  -4   75.99    1.11   0
   7   7  -4    8.13    0.73   0
   7  10  -4    0.06    0.52   0
   7  11  -4  173.06    2.07   0
   7  17  -2   -0.01    0.71   0
   8  14  -3   26.11    1.09   0
   8  16  -2    6.66    0.76   0
   9  15  -2    6.10    0.77   0
   1  12  -3    7.48    0.80   0
   2  14  -3   53.91    1.34   0
   4  11  -4    2.29    0.75   0
   5  12  -4   14.65    0.96   0
   5  16  -3   32.36    1.19   0
   7   6  -4  131.66    1.55   0
   7  12  -4    0.50    0.79   0
   8   8  -4   61.39    1.26   0
   8   9  -4   16.51    0.93   0
   8  10  -4    3.98    0.78   0
   9  13  -3    1.08    0.77   0
  10  13  -2    4.02    0.68   0
   2  17  -2   15.69    1.17   0
   3   8  -4    2.48    0.56   0
   3   9  -4   44.10    1.00   0
   3  10  -4    0.60    0.66   0
   4   6  -4   76.20    1.07   0
   4  12  -4   69.28    1.44   0
   4  16  -3    1.64    0.91   0
   4  18  -2   35.69    1.23   0
   5   5  -4    5.05    0.53   0
   5  13  -4   26.83    1.10   0
   5  18  -2    0.72    0.81   0
   6   2  -3    1.17    0.51   0
   6   5  -4    4.84    0.58   0
   6  13  -4    9.60    0.94   0
   6  16  -3    6.94    0.89   0
   8  15  -3    0.84    0.74   0
  10   8  -3    0.74    0.94   0
  10  10  -3    0.89    0.90   0
   1  13  -3    1.47    0.78   0
   3   7  -4    1.79    0.50   0
   3  11  -4  147.61    1.78   0
   6  18  -2    2.28    0.77   0
   7  13  -4    1.01    0.81   0
   7  16  -3    7.40    0.82   0
   8  12  -4    6.95    0.83   0
   9  14  -3    0.87    0.68   0
  10  11  -3    3.56    0.84   0
   2  15  -3   -0.63    0.84   0
   3  12  -4   72.52    1.40   0
   3  16  -3    1.75    0.88   0
   3  18  -2    0.42    0.82   0
   4   5  -4    1.89    0.45   0
   5  14  -4   28.18    1.14   0
   6  14  -4    1.15    0.80   0
   8   6  -4    3.68    0.71   0
   0   9  -3    2.22    0.50   0
   4  14  -4   30.48    1.25   0
   5   4  -4  336.78    1.99   0
   5  17  -3    1.91    0.82   0
   6   4  -4   29.16    0.79   0
   6  17  -3    4.13    0.78   0
   9  11  -4   17.60    0.92   0
   0   8  -3    2.32    0.45   0
   1  14  -3   11.19    0.92   0
   2   8  -4   44.65    0.88   0
   2   9  -4    0.42    0.56   0
   3  13  -4    4.60    0.85   0
   4  17  -3    4.94    0.85   0
   8  16  -3    2.41    0.66   0
   9   7  -4    5.36    0.79   0
   9  12  -4    1.41    0.71   0
   9  15  -3    0.66    0.62   0
   0   7  -3   72.20    0.86   0
   2   7  -4   83.55    1.05   0
   4   4  -4   38.14    0.75   0
   5  15  -4    0.61    0.80   0
   6  15  -4   42.38    1.21   0
   7  15  -4   19.27    0.92   0
   7  17  -3    0.11    0.66   0
   8  14  -4   44.24    1.16   0
   9   6  -4    1.95    0.77   0
   0  12  -3   10.18    0.75   0
   2  16  -3    0.09    0.80   0
   3  17  -3    4.84    0.84   0
   4  15  -4   13.74    0.94   0
   6   8  -5    7.05    0.70   0
   6   9  -5   12.29    0.78   0
   6  10  -5   37.30    1.08   0
   7  10  -5   19.08    0.89   0
   9  13  -4    5.52    0.74   0
   1  15  -3   11.22    0.90   0
   2   6  -4   75.72    0.96   0
   2  13  -4    9.29    0.95   0
   5   3  -4    1.13    0.43   0
   5  11  -5    2.13    0.72   0
   7   3  -4    3.02    0.69   0
   7   8  -5   13.81    0.80   0
   7  11  -5   99.34    1.54   0
   8  15  -4    9.24    0.83   0
   9   5  -4    1.80    0.77   0
  10   8  -4    0.47    0.79   0
  10   9  -4    0.90    0.79   0
  10  10  -4    0.59    0.76   0
   4   3  -4   53.12    0.81   0
   4   9  -5    1.13    0.62   0
   4  10  -5    7.08    0.74   0
   5   7  -5    1.64    0.58   0
   5  12  -5    1.08    0.69   0
   5  16  -4    3.98    0.81   0
   6  12  -5    3.96    0.75   0
   6  16  -4   24.26    0.95   0
   7  12  -5    0.68    0.70   0
   8   9  -5    4.98    0.72   0
   8  10  -5    5.18    0.72   0
   8  11  -5    0.35    0.64   0
   9  14  -4    0.85    0.63   0
  10   7  -4   10.33    1.02   0
  10  11  -4   16.05    0.85   0
   2   5  -4    1.84    0.39   0
   3  15  -4   13.53    0.91   0
   4   8  -5   19.05    0.77   0
   4  18  -3    1.26    0.71   0
   5   6  -5   22.53    0.75   0
   6   6  -5   56.29    1.05   0
   6  13  -5    1.84    0.73   0
   7   6  -5    2.76    0.63   0
   7  16  -4    9.43    0.73   0
   8   7  -5   12.27    0.76   0
   8  12  -5   15.54    0.81   0
  -4  11  -4    1.19    0.78   0
  -4  12  -2    0.96    0.67   0
  -3  10  -6   28.69    1.10   0
  -3  14  -4   27.47    1.03   0
  -2   5  -7    2.16    0.77   0
  -2  10  -7    4.88    0.77   0
  -2  16  -3    1.31    0.69   0
  -1   2  -7    5.51    0.83   0
  -1   9  -8    0.10    0.67   0
  -1  17  -4    4.42    0.72   0
  -4   4  -3   36.87    0.84   0
  -4   5  -4   -0.48    0.60   0
  -4   5  -1  186.38    1.45   0
  -3   3  -5    6.47    0.67   0
  -3   7  -6    0.33    0.75   0
  -3   9  -6    1.00    0.78   0
  -2  13  -6    4.39    0.75   0
  -1  15  -6   -0.23    0.72   0
   1  10  -9   16.54    0.72   0
  -4   6  -4  220.42    2.08   0
  -4   6  -1  195.28    1.54   0
  -4   7  -4   56.24    1.25   0
  -4   8  -4    4.95    0.82   0
  -4  11  -3   -0.36    0.71   0
  -3  12  -5    0.32    0.77   0
  -2   0  -4  494.31    2.34   0
  -2   7  -7    6.94    0.80   0
  -2   8  -7    6.40    0.82   0
  -1  16  -5    2.66    0.70   0
   0  12  -8    0.15    0.60   0
   1   7  -9    1.77    0.72   0
   1   8  -9    0.14    0.69   0
   1   9  -9    0.84    0.59   0
  -4   5  -3    0.87    0.53   0
  -4   5  -2    9.33    0.55   0
  -4   7  -1   22.08    0.72   0
  -4  10  -3    2.79    0.76   0
  -4  10  -2   16.40    0.80   0
  -3   4  -5   12.36    0.78   0
  -3  13  -4    6.43    0.85   0
  -2   1  -5    3.99    0.57   0
  -2   3  -6    4.77    0.81   0
  -2  15  -4    3.03    0.72   0
   0  16  -6   -0.62    0.59   0
   0  17  -5    1.10    0.64   0
  -4   6  -2  145.53    1.43   0
  -4   7  -3  114.49    1.48   0
  -4   8  -3   22.65    0.89   0
  -4   9  -2   15.37    0.77   0
  -3  11  -5    5.37    0.85   0
  -2  14  -5    7.50    0.81   0
  -1  12  -7    1.03    0.69   0
   0   4  -8    2.36    0.74   0
   0  11  -8    1.06    0.65   0
  -4   7  -2   38.25    0.88   0
  -3   2  -3  154.06    1.28   0
  -3   3  -4    0.43    0.51   0
  -3   5  -5   51.00    1.16   0
  -3  10  -5    7.75    0.88   0
  -3  12  -4    0.34    0.78   0
  -2  15  -3    3.54    0.76   0
  -1   1  -6    5.49    0.62   0
  -1  14  -6   -0.04    0.70   0
  -1  16  -4    2.56    0.81   0
   0   5  -8    1.76    0.83   0
   0  10  -8    3.60    0.70   0
   0  14  -7   -0.33    0.61   0
  -3   6  -5    1.03    0.71   0
  -3   7  -5   -0.29    0.71   0
  -2  13  -5   10.20    0.89   0
  -1   4  -7   12.60    0.83   0
   0   6  -8   39.45    1.17   0
   0   9  -8   10.43    0.81   0
   0  17  -4    0.25    0.67   0
   2  10  -9   11.80    0.75   0
  -3   9   0   11.82    0.60   0
  -3  11  -4   57.14    1.34   0
  -3  12  -3   57.81    1.25   0
  -2   2  -5   19.96    0.72   0
  -2   5  -6    0.39    0.70   0
  -2  10  -6   12.77    0.96   0
  -2  14  -4   14.50    0.94   0
  -1  15  -5    1.05    0.70   0
   0   7  -8   17.98    0.92   0
  -3   3  -3   19.31    0.60   0
  -3   4  -4  254.92    1.87   0
  -2   1  -4    4.97    0.48   0
  -2   6  -6    0.70    0.72   0
  -2   9  -6   26.67    1.09   0
  -1   9  -7   39.84    1.18   0
  -1  13  -6   14.74    0.93   0
   0   2  -7   47.71    1.09   0
   1  12  -8    1.14    0.62   0
   1  17  -5    2.14    0.73   0
   2   7  -9    2.73    0.75   0
   2   8  -9   23.91    0.92   0
   2   9  -9   -0.10    0.61   0
  -3   5  -4   18.97    0.77   0
  -3  10  -4   20.61    0.96   0
  -3  11  -3   47.08    1.15   0
  -2   7  -6   -0.28    0.51   0
  -2  12  -5    2.94    0.82   0
  -2  14  -3   38.36    1.06   0
  -2  14  -2    2.92    0.68   0
  -1   2  -6    0.51    0.59   0
  -1   7  -7    8.37    0.85   0
  -1   8  -7    0.59    0.76   0
   1  16  -6    0.19    0.64   0
  -3   4  -3  102.89    1.14   0
  -3   6  -4    1.49    0.60   0
  -3   7  -4   11.51    0.78   0
  -3   8  -4   41.80    1.10   0
  -3   9  -4   -0.45    0.70   0
  -3  10  -1   81.25    1.11   0
  -2  13  -4  124.52    1.73   0
  -1  12  -6   -1.01    0.74   0
  -1  15  -4   21.78    0.96   0
   1  11  -8   41.48    1.06   0
   1  14  -7    3.32    0.67   0
   2  13  -8    4.22    0.62   0
  -3  10  -3  495.49    2.98   0
  -2  11  -5   19.55    1.02   0
   0   3  -7    8.06    0.84   0
   0  14  -6   11.10    0.87   0
   1  10  -8   23.89    1.04   0
  -3   5  -3   32.35    0.76   0
  -3   9  -3   29.46    0.94   0
  -3   9  -1    8.77    0.57   0
  -2   2  -4   28.97    0.69   0
  -2   4  -5    3.75    0.60   0
  -2  10  -5   34.70    1.17   0
  -1   1  -5  298.03    1.81   0
  -1   3  -6    3.84    0.64   0
  -1  15  -3    1.02    0.70   0
   0  11  -7    2.55    0.77   0
   0  16  -4    3.39    0.76   0
   1  17  -4    2.92    0.73   0
   2  15  -7   17.11    0.77   0
   3  10  -9   23.92    0.81   0
  -3   7  -3   35.29    0.89   0
  -3   7  -1   49.33    0.81   0
  -3   8  -3    2.61    0.60   0
  -2   5  -5  159.41    1.67   0
  -1  13  -5    0.24    0.78   0
   0   4  -7   62.19    1.24   0
   0  15  -5    0.09    0.73   0
   0  16  -3   -0.23    0.77   0
   1   6  -8   40.78    1.08   0
   1   7  -8    3.90    0.87   0
   1   9  -8    5.17    0.74   0
   1  15  -6    6.63    0.75   0
   2  12  -8    5.06    0.70   0
   2  17  -5   19.34    0.89   0
   3   9  -9   21.31    0.81   0
  -3   6  -2   11.53    0.54   0
  -3   7  -2  115.55    1.22   0
  -3   8  -2    9.68    0.59   0
  -2   6  -5   17.14    0.82   0
  -2  12  -1    3.80    0.56   0
  -1  10  -6    4.03    0.82   0
  -1  14  -4    3.14    0.79   0
   0   1  -6    0.14    0.51   0
   0  13  -6   41.46    1.18   0
   2  16  -6    7.89    0.74   0
   3   6  -9    0.38    0.66   0
   3   7  -9   38.06    0.95   0
   3   8  -9   25.34    0.86   0
  -2   3  -4    6.63    0.48   0
  -2  12  -3    8.05    0.76   0
  -1   5  -6   10.87    0.75   0
   0   5  -7   23.66    0.91   0
   0   9  -7    1.18    0.77   0
   2  11  -8    5.50    0.70   0
   3  13  -8   11.56    0.72   0
  -2  10  -4   31.09    1.02   0
  -1   2  -5   80.54    1.04   0
  -1   7  -6   11.59    0.84   0
  -1   8  -6    2.16    0.76   0
  -1  12  -5    1.47    0.77   0
  -1  14  -2    2.91    0.64   0
   0   8  -7    4.79    0.78   0
   0  15  -4   -0.39    0.72   0
   1  12  -7   48.50    1.20   0
   2  14  -7   14.16    0.81   0
   3  15  -7    0.87    0.59   0
   4  10  -9    4.26    0.69   0
  -2  11  -3   49.39    1.10   0
  -1  13  -4    9.32    0.85   0
   0  12  -6    3.26    0.82   0
   1  14  -6   22.02    0.98   0
   1  16  -4   26.35    1.03   0
   2  10  -8   68.96    1.27   0
   2  17  -4    0.10    0.70   0
  -2   5  -4    6.20    0.55   0
  -2   9  -4   16.12    0.82   0
  -2  11  -2  135.29    1.42   0
   0  15  -3   26.32    1.00   0
   1  11  -7    1.66    0.76   0
   1  15  -5    6.26    0.90   0
   2  15  -6   10.18    0.91   0
   3  12  -8    1.28    0.64   0
   3  16  -6    0.72    0.72   0
   3  17  -5    3.25    0.70   0
   4   9  -9    3.11    0.63   0
  -2   6  -4    9.15    0.61   0
  -2   7  -4    0.48    0.57   0
  -2  10  -3    6.58    0.68   0
   1  16  -3    0.25    0.81   0
   2   5  -8    4.28    0.71   0
   4   6  -9   -0.63    0.73   0
   4   7  -9   42.30    1.02   0
   4   8  -9   11.50    0.73   0
   4  13  -8   11.32    0.77   0
  -2  10  -2   46.00    0.89   0
  -1  10  -5   -0.16    0.53   0
  -1  12  -4    8.72    0.83   0
  -1  13  -2    0.00    0.58   0
   0   3  -6    6.35    0.63   0
   0  13  -5    4.13    0.82   0
   2   6  -8   30.48    0.96   0
   2   7  -8    0.65    0.71   0
   3  14  -7    3.28    0.67   0
   4  15  -7    2.16    0.61   0
   5  10  -9    2.36    0.64   0
  -1   4  -5   10.86    0.60   0
   0  10  -6    4.08    0.79   0
   1   4  -7    4.62    0.67   0
   1   9  -7   11.48    0.85   0
   3  11  -8    1.36    0.65   0
   4  17  -5    2.64    0.74   0
  -2   5  -3   19.05    0.57   0
  -2   7  -3   45.81    0.86   0
  -2   8  -3  141.34    1.43   0
  -2   9  -2   44.10    0.83   0
  -1   7  -5  300.83    2.25   0
  -1   8  -5   14.70    0.82   0
  -1  11  -4    3.53    0.73   0
   0   9  -6   48.38    1.21   0
   0  12  -5    0.66    0.76   0
   1   5  -7    0.99    0.66   0
   1   8  -7    2.28    0.74   0
   1  14  -5    2.00    0.76   0
   1  15  -4    2.81    0.75   0
   2  12  -7    6.26    0.79   0
   2  14  -6    0.57    0.70   0
   3  10  -8    1.14    0.79   0
   4  16  -6    0.56    0.62   0
   5   9  -9    7.60    0.66   0
  -2   8  -2 1594.51    4.04   0
  -2   8  -1  159.86    1.21   0
  -1  12  -3    3.88    0.66   0
  -1  12  -1    5.70    0.52   0
   0   5  -6   64.38    1.12   0
   0   7  -6   35.87    1.01   0
   0   8  -6   89.40    1.45   0
   0  14  -3    1.60    0.69   0
   0  14  -2   16.72    0.83   0
   1   7  -7    0.66    0.71   0
   2  16  -4   27.60    0.98   0
   3  15  -6   11.11    0.81   0
   4  12  -8    0.62    0.62   0
   5   8  -9    1.35    0.67   0
   5  13  -8    2.14    0.59   0
  -2   6  -2  521.33    2.13   0
  -2   7  -2  393.77    1.95   0
  -1  10  -4    9.06    0.76   0
   0   6  -6    3.96    0.66   0
   2  11  -7    7.14    0.81   0
   2  15  -5   42.56    1.12   0
   3   9  -8    9.23    0.79   0
   4  14  -7   10.39    0.85   0
   5   6  -9    0.77    0.62   0
   5   7  -9    0.75    0.62   0
   6  10  -9    0.29    0.55   0
  -1  11  -3  282.90    2.10   0
   0  11  -5   19.43    0.94   0
   2  16  -3    0.03    0.70   0
   3   5  -8   43.22    1.08   0
   4  11  -8    1.46    0.65   0
   4  17  -4    8.85    0.82   0
   5  16  -6    0.69    0.60   0
   0   2  -5  102.64    1.03   0
   1  13  -5   17.42    0.94   0
   2  10  -7   20.95    0.96   0
   2  13  -6    7.91    0.83   0
   3   6  -8   18.35    0.84   0
   3   7  -8    2.31    0.71   0
   5  12  -8    4.24    0.64   0
   6   9  -9    0.10    0.55   0
  -1   5  -4   19.63    0.61   0
  -1   8  -4    3.17    0.59   0
  -1  11  -2   81.66    1.08   0
   0  12  -4    8.39    0.79   0
   1   2  -6  267.76    1.69   0
   2   9  -7    4.64    0.74   0
   3  12  -7    1.00    0.70   0
   3  14  -6    0.15    0.72   0
   3  16  -4   19.82    0.99   0
   4  10  -8   25.04    0.92   0
   4  15  -6    1.25    0.70   0
   6   8  -9    0.57    0.57   0
  -1   6  -4   18.00    0.64   0
  -1   7  -4    0.11    0.36   0
  -1  10  -3   35.03    0.79   0
   0  13  -2    3.64    0.59   0
   2  14  -5  103.24    1.56   0
   2  15  -4   27.00    0.98   0
   5  14  -7    0.68    0.64   0
   6   7  -9    0.32    0.58   0
   7   9  -9    8.61    0.67   0
   0  11  -4  107.10    1.45   0
   1   3  -6  159.25    1.40   0
   1   9  -6    0.46    0.70   0
   2   4  -7   63.45    1.07   0
   2   5  -7   65.14    1.12   0
   2   7  -7    5.09    0.73   0
   3  11  -7    2.66    0.74   0
   3  15  -5    0.17    0.69   0
   4   9  -8   29.53    0.97   0
   5  11  -8   25.45    0.89   0
   6  12  -8   49.37    1.11   0
  -1  10  -1    0.38    0.38   0
   0   4  -5    6.34    0.50   0
   0   7  -5  110.36    1.36   0
   0   8  -5    1.63    0.46   0
   0  12  -3   12.92    0.73   0
   1   8  -6   31.97    0.99   0
   1  14  -2   10.69    0.78   0
   2  15  -3   -0.57    0.78   0
   3  16  -3    1.72    0.72   0
   4   8  -8   10.17    0.79   0
   7   8  -9    1.46    0.56   0
  -1   8  -3   19.06    0.64   0
   0   5  -5    2.98    0.39   0
   0   6  -5    2.85    0.55   0
   1   5  -6   37.53    0.88   0
   1   6  -6   24.03    0.82   0
   1   7  -6   59.85    1.13   0
   1  11  -5   -0.21    0.70   0
   2  13  -5    1.15    0.75   0
   3  10  -7    2.57    0.72   0
   3  13  -6    2.89    0.76   0
   4   5  -8    2.25    0.74   0
   4   6  -8    2.23    0.76   0
   4   7  -8   37.57    1.00   0
   4  12  -7   34.26    1.04   0
   4  14  -6    0.44    0.69   0
   4  16  -4    2.12    0.83   0
   5  10  -8   10.74    0.75   0
   5  15  -6    0.47    0.65   0
   5  16  -5    4.51    0.74   0
   6  14  -7    5.08    0.66   0
   7   7  -9   14.86    0.68   0
  -1   5  -3   34.00    0.64   0
  -1   7  -3   63.70    0.90   0
  -1   9  -2   48.51    0.79   0
  -1   9  -1    0.62    0.35   0
   0  12  -2   16.20    0.67   0
   0  12  -1    1.49    0.45   0
   2  14  -4    5.14    0.77   0
   6  11  -8    6.34    0.75   0
   7  12  -8    1.08    0.57   0
   8   8  -9    1.25    0.51   0
   2  10  -6    1.87    0.73   0
   3   9  -7    0.57    0.69   0
   3  14  -5   20.10    0.95   0
   3  15  -4   17.33    0.90   0
   4  15  -5    0.94    0.72   0
   5   9  -8    3.96    0.68   0
   6  15  -6    3.27    0.67   0
   6  16  -5    4.01    0.71   0
   8   7  -9    4.07    0.60   0
  -1   8  -2   42.00    0.72   0
   0   9  -4   -0.43    0.54   0
   1  12  -4   28.18    0.94   0
   3  12  -6    3.02    0.78   0
   4  11  -7   14.85    0.86   0
   4  16  -3    1.53    0.73   0
   0   8  -4    1.46    0.53   0
   4  13  -6    0.55    0.72   0
   5   8  -8   30.62    0.96   0
   5  12  -7   22.62    0.93   0
   5  14  -6   11.42    0.82   0
   5  16  -4    3.22    0.75   0
   6  10  -8    9.46    0.73   0
   7  11  -8    1.81    0.59   0
   7  15  -6    3.05    0.64   0
   0   3  -4   27.98    0.58   0
   0   7  -4    1.70    0.47   0
   0  10  -3   24.06    0.75   0
   0  11  -2    7.08    0.54   0
   2   2  -6    3.78    0.48   0
   3   4  -7    1.91    0.59   0
   3   5  -7  135.25    1.47   0
   3   7  -7  109.47    1.46   0
   3  15  -3   54.22    1.16   0
   5   4  -8   16.61    0.84   0
   5   7  -8    1.29    0.67   0
   5  15  -5   17.98    0.91   0
   0   4  -4  724.22    2.48   0
   0   5  -4   77.67    0.93   0
   0   6  -4  361.52    1.97   0
   1   8  -5   14.84    0.74   0
   1  11  -4    1.64    0.48   0
   2   8  -6   81.85    1.31   0
   2  14  -2    7.49    0.67   0
   3  13  -5    1.29    0.74   0
   3  14  -4    2.87    0.74   0
   4  14  -5    3.48    0.77   0
   4  15  -4   17.59    0.92   0
   5   5  -8    0.02    0.62   0
   5   6  -8   12.96    0.76   0
   6   9  -8    4.09    0.68   0
   6  16  -4   22.22    0.94   0
   8  11  -8    1.58    0.53   0
   1   7  -5    5.44    0.60   0
   2   3  -6   12.93    0.60   0
   2   7  -6   -0.01    0.59   0
   4   9  -7   14.68    0.86   0
   5  11  -7   11.11    0.83   0
   6  12  -7   10.49    0.78   0
   6  14  -6    0.19    0.65   0
   7  10  -8   -0.07    0.60   0
   7  16  -4    6.22    0.83   0
   1   4  -5    0.06    0.40   0
   1   5  -5   21.86    0.65   0
   1   6  -5  147.42    1.40   0
   2   4  -6  111.46    1.22   0
   2   5  -6   84.73    1.14   0
   2   6  -6  243.65    1.89   0
   3  10  -6   19.85    0.92   0
   4  12  -6    5.73    0.79   0
   5  13  -6    2.46    0.74   0
   6  15  -5    0.34    0.71   0
   1  12  -2   80.95    1.08   0
   2  10  -5   59.99    1.20   0
   2  12  -4  102.84    1.47   0
   4  15  -3    9.51    0.83   0
   6   7  -8    0.15    0.64   0
   7   9  -8    3.15    0.64   0
   7  14  -6    0.33    0.64   0
   8  10  -8    2.56    0.58   0
   1  11  -3   22.78    0.77   0
   3   9  -6    2.90    0.71   0
   4   7  -7   40.75    1.03   0
   4  13  -5    2.94    0.78   0
   5  10  -7   30.27    1.01   0
   5  14  -5    0.98    0.74   0
   5  15  -4    0.01    0.75   0
   6   4  -8    5.01    0.74   0
   6   6  -8    1.76    0.63   0
   6  11  -7   20.23    0.91   0
   7  12  -7    0.54    0.62   0
   7  15  -5    0.01    0.69   0
   8  14  -6    0.10    0.60   0
   9  10  -8    5.87    0.56   0
   0   7  -3   86.01    0.96   0
   0   9  -2   41.12    0.72   0
   2  13  -2   18.49    0.75   0
   3  13  -4    4.57    0.78   0
   4   3  -7    4.13    0.58   0
   4  14  -4   37.13    1.12   0
   6  13  -6    2.09    0.71   0
   8   9  -8    0.35    0.57   0
   8  12  -7    2.98    0.72   0
   2  11  -4   -0.04    0.65   0
   3   8  -6   32.90    0.97   0
   3  14  -2    0.30    0.63   0
   4   4  -7    0.57    0.57   0
   4   5  -7    2.91    0.62   0
   5   9  -7    4.00    0.72   0
   5  12  -6   25.04    1.01   0
   6  15  -4   35.15    1.08   0
   9   9  -8   -0.11    0.52   0
   9  12  -7    1.55    0.58   0
   0   8  -2  766.41    2.51   0
   1  11  -2    0.27    0.48   0
   2  12  -3   10.70    0.73   0
   5  15  -3    6.03    0.81   0
   6  10  -7   -0.11    0.68   0
   6  14  -5   49.42    1.22   0
   7  11  -7    0.46    0.66   0
   7  13  -6    0.82    0.79   0
   3   2  -6   29.89    0.68   0
   3   7  -6    0.45    0.60   0
   4  12  -5    2.36    0.76   0
   5   8  -7   13.88    0.83   0
   5  13  -5    1.83    0.78   0
   7   4  -8    0.28    0.68   0
   7   6  -8   -0.24    0.62   0
   7  15  -4   17.25    0.94   0
   2   7  -5  475.60    2.53   0
   2  10  -4    6.82    0.66   0
   3   3  -6   34.46    0.76   0
   3   5  -6   81.51    1.13   0
   3  10  -5   78.89    1.34   0
   3  12  -4   72.92    1.31   0
   4  14  -3   46.82    1.14   0
   5  14  -4   24.71    1.02   0
   6  12  -6    5.91    0.79   0
   6  15  -3    1.94    0.90   0
   7  14  -5    6.55    0.81   0
   8   7  -8    9.49    0.71   0
   8  11  -7    2.81    0.65   0
   8  13  -6    0.14    0.63   0
   8  15  -4    5.34    0.78   0
   9  13  -6    0.92    0.60   0
  10   8  -8    3.59    0.57   0
   1   6  -4   76.78    0.95   0
   1   9  -3  171.17    1.45   0
   2   2  -5   34.36    0.62   0
   2   6  -5  149.45    1.41   0
   4   9  -6    2.11    0.70   0
   5   2  -7    3.00    0.66   0
   6   9  -7    0.18    0.69   0
   7  10  -7    4.24    0.73   0
   8   6  -8    3.70    0.62   0
   8  14  -5   11.53    0.83   0
   9  11  -7   -0.17    0.58   0
   9  14  -5    3.00    0.68   0
   1   4  -4  708.88    2.38   0
   2   5  -5   16.57    0.61   0
   4  14  -2    6.45    0.77   0
   5   3  -7   26.42    0.85   0
   5   5  -7    9.95    0.72   0
   6  13  -5    1.69    0.77   0
   7  12  -6   -0.33    0.69   0
   7  15  -3    0.17    0.80   0
   8   5  -8    0.55    0.60   0
   8  15  -3    0.40    0.85   0
   9   7  -8    0.97    0.55   0
  10   7  -8    0.74    0.53   0
   2   9  -4    0.79    0.57   0
   2  12  -1    0.18    0.47   0
   3  11  -4  209.16    1.96   0
   4   8  -6   32.12    0.98   0
   5   4  -7    0.51    0.58   0
   5  10  -6   62.60    1.32   0
   5  12  -5    1.70    0.77   0
   6   8  -7   25.88    0.96   0
   6  14  -4    1.28    0.79   0
   8  10  -7   -0.54    0.65   0
   9   6  -8    0.31    0.58   0
   1   8  -3  214.27    1.52   0
   1  10  -1   45.54    0.70   0
   3  12  -3    6.01    0.70   0
   5  14  -3    3.43    0.78   0
   7   9  -7   32.61    1.04   0
   8  12  -6    5.20    0.76   0
   9   5  -8    0.57    0.59   0
   9  10  -7    1.34    0.63   0
  10   6  -8    2.11    0.56   0
  10  10  -7    2.62    0.59   0
  10  12  -6    0.80    0.67   0
   3   8  -5   85.14    1.26   0
   4   7  -6   24.26    0.86   0
   4  12  -4   64.43    1.31   0
   5   9  -6   33.56    1.06   0
   5  13  -4   21.80    1.01   0
   6   7  -7    3.92    0.71   0
   7  13  -5   11.02    0.89   0
   9  12  -6    4.83    0.71   0
  10   5  -8    3.95    0.57   0
   1   7  -3    0.95    0.40   0
   2  10  -3   49.54    0.95   0
   2  11  -2   22.04    0.72   0
   4   1  -6   34.75    0.75   0
   4   6  -6  123.91    1.46   0
   6  10  -6    3.03    0.77   0
   7   8  -7   38.97    1.10   0
   8   9  -7    4.10    0.75   0
   8  13  -5    3.84    0.80   0
   9  14  -4    0.91    0.74   0
  10  13  -5    0.55    0.64   0
   3   7  -5   41.23    0.93   0
   3  10  -4    0.14    0.62   0
   4   5  -6   39.61    0.91   0
   5  11  -5    1.87    0.78   0
   6   5  -7  100.09    1.38   0
   6  12  -5    3.40    0.82   0
   6  14  -3    9.95    0.89   0
   9  13  -5    9.75    0.82   0
   1   6  -3   38.27    0.68   0
   2   7  -4   90.27    1.11   0
   2  11  -1   12.70    0.63   0
   3  12  -2    2.33    0.62   0
   4  13  -2    1.27    0.71   0
   5   8  -6   62.95    1.27   0
   6   4  -7   -0.13    0.61   0
   6  13  -4    7.96    0.91   0
   7   7  -7   81.10    1.39   0
   7  14  -3    6.66    1.02   0
   8   8  -7    0.52    0.67   0
  10   9  -7    9.60    0.72   0
   2   9  -3   69.73    1.03   0
   3   6  -5    3.78    0.55   0
   4  11  -4    1.55    0.69   0
   9  14  -3    0.39    0.81   0
   2   6  -4   78.21    0.99   0
   3   5  -5  134.17    1.32   0
   3   9  -4   50.28    1.03   0
   4  12  -3   12.20    0.81   0
   5   7  -6   64.64    1.24   0
   6  11  -5    3.33    0.83   0
   7  13  -4    1.72    0.86   0
   9   8  -7    1.01    0.68   0
  10   8  -7    0.02    0.60   0
  11   8  -7    2.04    0.57   0
   2   5  -4    2.25    0.43   0
   3   4  -5  138.38    1.27   0
   4   8  -5   24.50    0.89   0
   7  14  -2    3.10    0.93   0
   8   7  -7    1.76    0.70   0
   8  13  -4    0.90    0.83   0
   8  14  -2    2.35    1.07   0
   9  12  -5   -0.22    0.74   0
  10  12  -5    1.77    0.74   0
  11  10  -6    0.01    0.69   0
   5   6  -6   10.48    0.75   0
   5  13  -2    8.21    0.87   0
   6  12  -4   78.17    1.55   0
   7   4  -7    2.88    0.69   0
   7   9  -6    2.90    0.80   0
   9   7  -7    1.39    0.69   0
   9  10  -6    0.07    0.73   0
  11   7  -7   -0.45    0.60   0
  12   6  -7    0.36    0.58   0
   3   8  -4    2.35    0.58   0
   3  10  -3    7.78    0.55   0
   3  11  -2   65.17    1.10   0
   4  12  -2   93.18    1.45   0
   5   5  -6   -0.28    0.60   0
   5  11  -4    7.28    0.87   0
   7  11  -5  104.84    1.79   0
  10   7  -7   12.47    0.81   0
  10  10  -6    3.22    0.73   0
   4  11  -3    1.58    0.71   0
   5   1  -6   27.39    0.78   0
   5  12  -3    0.35    0.78   0
   6   7  -6   12.41    0.87   0
   6  10  -5   36.34    1.19   0
   8   5  -7    0.55    0.73   0
  10  13  -3    2.54    0.83   0
  11  11  -5    9.94    0.81   0
  11  12  -4   -0.10    0.70   0
   2   9  -2   -0.23    0.43   0
   5   3  -6  261.93    1.88   0
   6  13  -2    9.28    0.99   0
   7  12  -4    0.28    0.89   0
   8   4  -7   19.91    0.89   0
   8  11  -5    0.80    0.85   0
   8  13  -3    5.77    0.96   0
   9  13  -3    1.08    0.88   0
  10  11  -5    5.20    0.85   0
  11   9  -6    0.22    0.66   0
   3   7  -4    1.96    0.41   0
   3  11  -1   74.94    1.08   0
   4   6  -5    0.10    0.56   0
   5   8  -5   94.20    1.50   0
   8   2  -7    5.71    0.71   0
   9   5  -7    3.34    0.74   0
   9   9  -6   14.41    0.97   0
   9  11  -5    0.82    0.81   0
  10   9  -6   -0.20    0.75   0
  10  12  -4    1.08    0.83   0
  12   4  -7    0.97    0.56   0
  12   8  -6    7.52    0.70   0
   6  12  -3    0.22    0.89   0
   7  10  -5   20.27    1.12   0
   7  13  -2    0.46    0.95   0
   9   4  -7    0.14    0.71   0
   9  12  -4    1.39    0.90   0
  10   5  -7    6.66    0.73   0
   5   6  -2    2.55    0.41   0
   7   7  -2    0.73    0.55   0
   7  11   0    7.13    0.88   0
   8  -3  -2    3.49    0.51   0
   9  -2  -2    5.25    0.60   0
   9   6  -2   14.74    0.80   0
   9  11   1    5.35    0.88   0
  10   4  -2    6.76    0.70   0
  11  -2  -1    4.69    0.83   0
  12  -1   0    4.04    0.71   0
   6   7  -2  248.44    1.79   0
   8   7  -2    2.43    0.65   0
   8  11   0    1.62    0.96   0
  10  -1  -2    7.92    0.72   0
  11   8   0    0.53    0.54   0
  12   5   0    0.95    0.53   0
   6  10  -1   11.80    0.79   0
   7  10  -1   78.17    1.39   0
   9  -3  -2   68.66    1.20   0
  11   9   1    0.10    0.45   0
  12   2  -1    7.12    0.82   0
  12   3  -1    7.98    0.82   0
   5   7  -2   36.87    0.75   0
   7   8  -2   31.91    0.93   0
   9   7  -2   -0.75    0.67   0
  10  -2  -2    0.29    0.68   0
  10   6  -2   42.54    1.15   0
  11   3  -2    3.19    0.73   0
  11   7  -1    6.32    0.74   0
  12   4  -1    2.89    0.70   0
   6   8  -2   22.61    0.77   0
   7   2  -3   51.63    0.83   0
   8   2  -3    4.41    0.52   0
   8   3  -3   56.86    0.97   0
   8   8  -2  106.43    1.55   0
   9  11   0    0.55    0.81   0
  10   9  -1    1.69    0.88   0
  11   0  -2    7.23    0.81   0
  11   4  -2   49.21    1.21   0
  12   5  -1    5.66    0.73   0
   7   1  -3   27.94    0.64   0
   9   2  -3   14.08    0.68   0
   9   8  -2    0.12    0.74   0
  10   7  -2   35.06    1.11   0
  10  11   1    0.37    0.68   0
  11  -1  -2   10.92    0.87   0
  11   5  -2   -0.12    0.71   0
  11   8  -1    0.23    0.63   0
  11   9   0    1.78    0.55   0
  12   7   0   -0.32    0.44   0
   5   8  -2  345.57    2.05   0
   6   1  -3  237.03    1.46   0
   6   2  -3    0.61    0.37   0
   6   3  -3  118.61    1.13   0
   8   5  -3    4.92    0.63   0
   9   4  -3   19.13    0.81   0
  13   1   0    0.53    0.57   0
  13   3   0    0.25    0.52   0
   4   7  -2  219.21    1.46   0
   6  11  -1   93.65    1.51   0
   7   5  -3   90.01    1.13   0
   7  11  -1    1.35    0.82   0
   8  -1  -3   39.62    0.81   0
   8   9  -2    4.33    0.80   0
   8  12   0    4.12    0.94   0
  10   2  -3    4.22    0.66   0
  10   3  -3    1.15    0.61   0
  10   8  -2   16.60    0.95   0
  12   8   0    4.59    0.48   0
  13   0   0    5.40    0.61   0
  13   4   0    0.17    0.47   0
   6   5  -3   14.84    0.60   0
   6   9  -2    1.29    0.63   0
   7   6  -3    3.60    0.58   0
   8   6  -3    5.14    0.68   0
   9  -1  -3    5.04    0.60   0
   9   9  -2    5.23    0.87   0
  10   4  -3   20.29    0.87   0
  10  10  -1   18.57    0.96   0
  10  11   0    1.67    0.74   0
  11   7  -2    7.86    0.81   0
  11   9  -1    0.70    0.75   0
  12   3  -2    1.08    0.74   0
  12   7  -1    2.57    0.57   0
   5   2  -3  152.78    1.15   0
   8  -2  -3    5.38    0.54   0
   9  11  -1   29.84    1.25   0
  12   0  -2    7.30    0.88   0
  13   4  -1    1.20    0.66   0
   5   4  -3   12.94    0.50   0
   5   9  -2    2.01    0.57   0
   7  -2  -3   54.60    0.82   0
   7   7  -3    4.36    0.64   0
   7  10  -2    9.81    0.97   0
   8   7  -3  180.66    1.89   0
   9  -2  -3   17.16    0.75   0
  10  -1  -3   53.65    1.11   0
  10   6  -3    1.61    0.74   0
  10   9  -2   45.73    1.24   0
  11   2  -3   -0.03    0.67   0
  11   3  -3    0.89    0.66   0
  12   8  -1    0.84    0.59   0
   5   5  -3    5.52    0.45   0
  11   4  -3   -0.22    0.64   0
  11   8  -2    2.40    0.72   0
  12   6  -2    0.32    0.65   0
   6  -2  -3    0.80    0.36   0
   6   7  -3   31.37    0.84   0
   6  10  -2   33.68    1.00   0
   7  12  -1    8.08    1.08   0
   8  -3  -3   71.49    1.08   0
   8   8  -3   74.47    1.36   0
  10  -2  -3    3.65    0.73   0
  10   7  -3  129.02    1.75   0
  10  11  -1    6.27    0.94   0
  11   5  -3   -0.29    0.67   0
  11  10  -1    9.62    0.76   0
  13   6  -1    3.13    0.49   0
   5   6  -3    1.15    0.44   0
   7  -3  -3   14.29    0.56   0
   7   8  -3    0.29    0.66   0
   9  -3  -3   23.16    0.82   0
  11  -1  -3   10.20    0.84   0
  12   7  -2    0.02    0.60   0
  13   3  -2    1.08    0.72   0
   9  12  -1   -0.09    0.97   0
  10   8  -3   -0.39    0.74   0
  10  10  -2    2.32    0.81   0
  10  12   0    0.26    0.57   0
  10  12   0    0.07    0.38   0
  11   9  -2    2.68    0.72   0
  12   2  -3    0.63    0.73   0
  12   3  -3    3.55    0.74   0
  13   1  -2    0.28    0.74   0
  13   4  -2    0.41    0.65   0
   4   9  -2    0.37    0.49   0
   5   7  -3    1.23    0.48   0
   5  10  -2   34.25    0.92   0
   6   8  -3   26.48    0.85   0
   7  11  -2    0.95    0.81   0
   8   2  -4  124.66    1.39   0
   8   4  -4   20.11    0.78   0
   8   9  -3    7.49    0.85   0
   8  11  -2    9.05    0.96   0
   9   2  -4   16.82    0.76   0
   9   3  -4    4.52    0.65   0
   9   4  -4  159.60    1.72   0
  10  -3  -3    1.50    0.73   0
  11  -2  -3   -0.37    0.90   0
  11   7  -3    0.39    0.70   0
  12   5  -3    0.13    0.66   0
  12   8  -2    8.78    0.70   0
  13   0  -2    1.87    0.74   0
   4   5  -3  210.65    1.39   0
   6  11  -2    1.00    0.87   0
   7   2  -4    5.64    0.52   0
   7   3  -4    3.12    0.51   0
   7   9  -3   22.67    0.93   0
   8   1  -4   37.13    0.85   0
   8   5  -4    9.08    0.71   0
   9   1  -4    3.45    0.60   0
   9  11  -2    1.43    0.88   0
  10   3  -4   67.40    1.23   0
  12   6  -3    0.73    0.64   0
  13   6  -2    0.07    0.54   0
   7   1  -4   50.42    0.87   0
   7   5  -4    3.88    0.60   0
   8   0  -4  158.70    1.48   0
   9   6  -4    1.50    0.65   0
  10   1  -4   19.57    0.82   0
  10   9  -3   17.11    0.97   0
  10  12  -1    0.65    0.88   0
  11   8  -3   12.06    0.87   0
  11  11  -1    5.51    0.68   0
   4   6  -3  290.86    1.68   0
   7   0  -4   56.16    0.89   0
   8   6  -4    3.46    0.51   0
   9  -1  -4    3.49    0.71   0
  10   6  -4    4.72    0.75   0
  10  11  -2    1.34    0.83   0
  11   2  -4   21.02    0.88   0
  11   4  -4   14.80    0.83   0
  12   7  -3   -0.29    0.65   0
  12   9  -2   13.41    0.72   0
   6   2  -4    0.91    0.41   0
   6   3  -4  109.03    1.17   0
   6   4  -4   25.40    0.73   0
   7   6  -4  122.90    1.48   0
   7  10  -3    2.19    0.90   0
   8  -1  -4   39.65    0.87   0
   8   7  -4    2.64    0.69   0
   9   7  -4    4.78    0.75   0
   9  10  -3    3.36    0.85   0
  11   1  -4    1.85    0.68   0
  11   5  -4    0.30    0.66   0
  13   3  -3    1.86    0.72   0
  13   4  -3    0.32    0.67   0
   4  10  -2    1.31    0.57   0
   6   1  -4    1.46    0.39   0
   6   5  -4    5.22    0.54   0
   7  12  -2   47.62    1.24   0
   8  12  -2   10.41    0.96   0
   9  12  -2    1.38    0.97   0
  10   7  -4   10.36    0.84   0
  10  10  -3    0.88    0.78   0
  11   0  -4   13.79    0.83   0
  11   9  -3    0.11    0.69   0
  12   8  -3    1.52    0.73   0
  13   1  -3    3.51    0.74   0
  13   5  -3   21.08    0.88   0
   6   0  -4    0.24    0.38   0
   6   6  -4    4.35    0.57   0
   7   7  -4    6.45    0.54   0
   8  -2  -4  122.95    1.32   0
   8   8  -4   60.41    1.25   0
   9  -2  -4   17.74    0.77   0
   9   8  -4   13.38    0.89   0
  11  11  -2   13.74    0.83   0
  12   2  -4    5.33    0.71   0
  12   3  -4    1.70    0.67   0
  12   4  -4   14.09    0.80   0
  13   6  -3    3.89    0.63   0
   6  10  -3   11.03    0.82   0
  10  -2  -4   30.29    0.96   0
  10   8  -4    0.79    0.72   0
  11  -1  -4    2.42    0.74   0
  11   7  -4    4.13    0.73   0
  12   5  -4    0.65    0.64   0
  12  10  -2    2.01    0.53   0
   5   2  -4    4.38    0.40   0
   5   4  -4  309.43    1.83   0
   6   7  -4    1.68    0.58   0
   7   8  -4   29.05    0.95   0
   8  11  -3   23.84    1.05   0
   9  11  -3    8.40    0.92   0
  10  12  -2    0.81    0.78   0
  11  10  -3    7.73    0.79   0
  12   0  -4   11.06    0.83   0
  12   9  -3    1.45    0.60   0
   5   1  -4   21.48    0.56   0
   5   5  -4    6.41    0.51   0
   7  11  -3   86.67    1.49   0
   8   9  -4   18.81    0.95   0
   9  -3  -4    4.50    0.68   0
   9   9  -4    2.78    0.79   0
  10  11  -3    3.33    0.84   0
  11  -2  -4   21.51    1.05   0
  11   8  -4   17.89    0.89   0
   5   6  -4   84.31    1.09   0
   5  10  -3   20.27    0.89   0
   6   8  -4   66.91    1.16   0
   7   9  -4   12.27    0.95   0
   8  -3  -4   36.97    0.85   0
   8   3  -5   51.16    1.03   0
   9   2  -5   94.24    1.34   0
   9   3  -5    0.57    0.59   0
   9   4  -5    0.56    0.60   0
  10   3  -5   17.32    0.82   0
  10   4  -5   -0.48    0.61   0
  10   9  -4    0.79    0.72   0
  12  -1  -4    0.64    0.76   0
  12   7  -4    0.28    0.62   0
  13   3  -4   16.65    0.83   0
  13   4  -4   11.04    0.73   0
   5   0  -4  348.43    1.73   0
   6  11  -3   50.29    1.14   0
   8   2  -5    2.11    0.58   0
   8   4  -5   23.96    0.83   0
   9   1  -5  112.35    1.42   0
  10   5  -5   60.25    1.22   0
  11   3  -5    7.08    0.69   0
  11   9  -4    2.09    0.79   0
  13   1  -4    6.14    0.84   0
   5   7  -4   11.75    0.63   0
   7   3  -5  198.90    1.71   0
   8   1  -5  153.05    1.53   0
   8   6  -5   -0.55    0.61   0
   8  12  -3    3.21    0.84   0
   9  10  -4   33.58    1.11   0
   9  12  -3    0.96    0.91   0
  11   4  -5    1.54    0.61   0
  11   5  -5    0.74    0.62   0
  11  11  -3   15.14    0.84   0
  12   8  -4   11.87    0.74   0
  12  10  -3    1.24    0.57   0
  13   6  -4    1.77    0.56   0
   3   7  -3  121.44    1.07   0
   5  -1  -4   18.73    0.53   0
   7   2  -5  107.88    1.28   0
   7   5  -5    1.32    0.58   0
  10   7  -5    5.14    0.71   0
  10  10  -4   -0.16    0.72   0
  13   0  -4   14.83    0.84   0
   4   2  -4   92.27    0.93   0
   4   3  -4   48.77    0.74   0
   5   8  -4    2.61    0.56   0
   7   6  -5    2.80    0.63   0
   7  10  -4    0.10    0.73   0
   9  -1  -5  111.72    1.38   0
  10  -1  -5   32.06    1.02   0
  10  12  -3    4.76    0.79   0
  12   2  -5   16.92    0.79   0
  12   3  -5    6.92    0.66   0
   4   5  -4    1.41    0.30   0
   5  11  -3    2.04    0.66   0
   6   3  -5   19.44    0.66   0
   9   8  -5    9.93    0.81   0
  10   8  -5    2.66    0.68   0
  11   7  -5    0.05    0.62   0
  11  10  -4    1.18    0.64   0
  12   1  -5    1.71    0.65   0
  12   5  -5    1.61    0.56   0
  12   9  -4    6.83    0.64   0
   3   8  -3   85.59    0.95   0
   4   6  -4   79.42    0.99   0
   4  10  -3    0.36    0.55   0
   6   2  -5   11.28    0.57   0
   6   5  -5  187.47    1.67   0
   7   7  -5   11.47    0.75   0
   8  11  -4   27.18    1.03   0
  10  11  -4   15.12    0.97   0
  12   6  -5    5.84    0.62   0
   4   0  -4  629.50    2.16   0
   5   9  -4    0.59    0.58   0
   6   1  -5   13.85    0.58   0
   6   6  -5   62.63    1.09   0
   6  10  -4    0.29    0.66   0
  10  -2  -5    2.45    0.69   0
  11   8  -5    1.29    0.62   0
   4   7  -4   26.90    0.70   0
   7   8  -5   14.24    0.82   0
   7  11  -4  183.10    1.94   0
   8  -2  -5    1.44    0.56   0
   8   9  -5    5.33    0.76   0
  10   9  -5    3.89    0.71   0
  12  10  -4    5.28    0.61   0
  13   2  -5    3.92    0.64   0
  13   3  -5    5.34    0.60   0
  13   4  -5    1.14    0.53   0
  13   5  -5    7.80    0.59   0
   6   7  -5  187.18    1.78   0
  10   3  -6    0.67    0.55   0
  10   4  -6    1.79    0.57   0
  11  -2  -5    1.51    0.71   0
  11   9  -5    1.37    0.62   0
  11  11  -4   -0.01    0.60   0
  12  -1  -5    1.74    0.69   0
  12   8  -5   10.60    0.67   0
  13   6  -5   -0.24    0.47   0
   3   9  -3  156.48    1.27   0
   4   8  -4  100.95    1.18   0
   5   3  -5    0.60    0.44   0
   5   4  -5   68.30    0.99   0
   7  -2  -5  116.85    1.24   0
   7   9  -5   10.80    0.80   0
   8  12  -4    5.94    0.90   0
   9  -3  -5    0.58    0.73   0
   9   2  -6   13.39    0.73   0
   9   5  -6    8.70    0.70   0
   9  10  -5    1.73    0.70   0
   9  12  -4    0.91    0.74   0
  10   2  -6    0.66    0.57   0
  10   5  -6    2.51    0.62   0
  11   3  -6    1.92    0.58   0
  11   4  -6    4.79    0.59   0
   5  -3  -4    0.75    0.35   0
   5   2  -5    0.03    0.29   0
   5   5  -5   15.97    0.55   0
   6  11  -4    3.30    0.73   0
   8  -3  -5   60.29    1.09   0
   8   3  -6    5.00    0.62   0
   8   4  -6  100.00    1.38   0
   9   1  -6    7.22    0.65   0
   9   6  -6   14.41    0.79   0
  10   1  -6    0.83    0.59   0
  10  10  -5    0.62    0.68   0
  10  12  -4    0.46    0.68   0
  11   2  -6    5.61    0.62   0
  11   5  -6    3.38    0.59   0
   3   5  -4    7.82    0.44   0
   5   6  -5   17.90    0.59   0
   7  12  -4    0.02    0.75   0
   8   1  -6    0.60    0.54   0
   9   7  -6    1.33    0.63   0
  10   0  -6    0.42    0.58   0
  10   7  -6    2.73    0.63   0
  11   6  -6   19.99    0.77   0
  11  10  -5    0.38    0.59   0
  12   3  -6   -0.39    0.51   0
  12   9  -5    0.33    0.53   0
   3   6  -4  198.35    1.37   0
   4   9  -4    3.03    0.55   0
   5   7  -5    1.06    0.55   0
   7   3  -6   48.91    0.98   0
   7   4  -6   51.93    1.05   0
  11   0  -6    3.39    0.70   0
  11   7  -6    1.28    0.56   0
  12   2  -6   25.82    0.81   0
  12   5  -6    0.16    0.50   0
   6  -2  -5   11.46    0.54   0
   7  -3  -5  209.40    1.58   0
   7   2  -6   16.30    0.68   0
   7   5  -6   35.24    0.84   0
   7   6  -6    6.42    0.67   0
   8   0  -6    0.52    0.54   0
   8   7  -6    0.56    0.61   0
   9   8  -6   11.78    0.77   0
   9  11  -5    2.02    0.72   0
  10  -1  -6   -0.24    0.68   0
  10   8  -6    6.69    0.68   0
  12   1  -6    0.87    0.56   0
  12   6  -6    0.70    0.49   0
   5   8  -5   81.06    1.20   0
   5  11  -4    6.88    0.69   0
   7   1  -6   16.99    0.68   0
   8  11  -5    0.18    0.72   0
  11   8  -6    5.17    0.59   0
   2   8  -3   40.73    0.69   0
   4   2  -5    5.98    0.42   0
   4   4  -5  116.69    1.16   0
   4   5  -5    8.78    0.53   0
   5  -1  -5   37.23    0.68   0
   6   3  -6    3.06    0.54   0
   6  10  -5   36.81    0.98   0
   7   0  -6   29.72    0.78   0
   7   7  -6    2.15    0.63   0
   8  -1  -6    0.56    0.55   0
   9   9  -6   15.94    0.90   0
  10   9  -6    0.23    0.59   0
  11  -1  -6    3.10    0.64   0
  11  11  -5   11.67    0.68   0
  12   0  -6   20.47    0.77   0
  13   4  -6    2.50    0.49   0
  13   5  -6    0.20    0.43   0
   4   6  -5    0.18    0.46   0
   4  10  -4    9.30    0.65   0
   6   2  -6   33.15    0.80   0
   7  11  -5  102.11    1.46   0
   9  -2  -6   11.79    0.78   0
  10  -2  -6    0.37    0.71   0
  11   9  -6    0.42    0.60   0
  12   8  -6   14.96    0.61   0
  13   2  -6    2.71    0.51   0
   3   8  -4    2.15    0.47   0
   4   1  -5  193.08    1.33   0
   6  -3  -5   20.05    0.62   0
   6   1  -6    4.85    0.52   0
   6   6  -6  127.05    1.49   0
   8   9  -6   16.21    0.82   0
   9  12  -5   -0.26    0.72   0
  13   1  -6    2.07    0.55   0
   4   7  -5   15.41    0.65   0
   5  -2  -5    0.18    0.37   0
   6   7  -6   10.21    0.72   0
   8  -2  -6   16.55    0.70   0
   9   4  -7   -0.19    0.53   0
   9  10  -6    0.83    0.61   0
  10   4  -7    0.14    0.51   0
  10   5  -7    7.83    0.61   0
  11  -2  -6    4.96    0.70   0
   6   0  -6   79.29    1.06   0
   6  11  -5    3.16    0.72   0
   7   9  -6    3.08    0.67   0
   9   2  -7    6.56    0.62   0
   9   3  -7   -0.36    0.52   0
  11   4  -7   -0.25    0.46   0
  11   5  -7   19.92    0.69   0
   2   4  -4  185.17    1.18   0
   3   9  -4   49.26    0.84   0
   5   3  -6  284.15    1.90   0
   5   4  -6  149.71    1.45   0
   5   5  -6    0.40    0.53   0
   5  10  -5   46.70    1.02   0
   6   8  -6   93.60    1.35   0
   7  -2  -6   17.22    0.67   0
   7  12  -5    0.06    0.78   0
   8   3  -7   27.00    0.84   0
   8   4  -7   22.54    0.81   0
   9  -3  -6    2.07    0.63   0
   9   1  -7    3.51    0.57   0
   9   6  -7    1.34    0.55   0
  10   1  -7    7.47    0.61   0
  11   6  -7    2.73    0.52   0
  11  10  -6   -0.19    0.47   0
  12   4  -7    1.33    0.50   0
   4  -1  -5  181.34    1.24   0
   5   2  -6  167.42    1.45   0
   5   6  -6   12.65    0.68   0
   6  -1  -6    4.52    0.51   0
   8  -3  -6    4.57    0.68   0
   8   6  -7    0.22    0.57   0
   9   7  -7    1.65    0.57   0
  11   7  -7   -0.25    0.45   0
  12   3  -7    1.49    0.45   0
  12   5  -7    4.89    0.48   0
   3   5  -5  129.94    1.17   0
   4   9  -5    0.85    0.65   0
   5  -3  -5    0.56    0.39   0
   6  -4  -5   80.69    0.99   0
   7   3  -7    3.98    0.56   0
   7   4  -7    2.42    0.58   0
   8   7  -7    2.38    0.60   0
   9  11  -6    1.79    0.63   0
  10   8  -7   -0.24    0.51   0
  10  11  -6    0.25    0.56   0
  12   6  -7    0.56    0.42   0
   2   7  -4   85.85    0.91   0
   3   6  -5    3.31    0.46   0
   7   2  -7   10.40    0.64   0
   7   6  -7   26.61    0.85   0
   8  11  -6    3.66    0.67   0
   9   8  -7    1.21    0.55   0
  11   8  -7    3.79    0.50   0
  12   1  -7    0.47    0.48   0
   3   1  -5   91.37    0.90   0
   3  10  -4    0.13    0.49   0
   5   8  -6   63.77    1.10   0
   5  11  -5    1.86    0.65   0
   6  -2  -6   35.56    0.77   0
   6  12  -5    3.50    0.69   0
   7   1  -7   10.78    0.64   0
   8   8  -7    1.09    0.58   0
   9  -1  -7    3.63    0.59   0
  10  -1  -7    7.60    0.64   0
   3   7  -5   38.10    0.78   0
   4   4  -6   75.07    1.02   0
   6  10  -6    3.43    0.67   0
   7  11  -6    6.88    0.70   0
   9   9  -7    4.24    0.60   0
  11  -1  -7    3.15    0.58   0
   2   8  -4   47.92    0.75   0
   4   6  -6  114.28    1.27   0
   4  10  -5    6.65    0.64   0
   5  -1  -6   28.87    0.68   0
   6   2  -7    7.86    0.58   0
   6   3  -7   41.67    0.92   0
   6   5  -7   93.47    1.29   0
   7   8  -7   38.17    0.96   0
   9  12  -6    4.43    0.67   0
  11   9  -7    0.18    0.43   0
   3   8  -5   85.75    1.07   0
   4   1  -6   36.63    0.72   0
   5  -4  -5   68.47    0.90   0
   8  12  -6    3.17    0.70   0
   9  -2  -7    6.91    0.63   0
  10  -2  -7   -0.00    0.56   0
   4   7  -6   30.12    0.81   0
   6  -3  -6    3.46    0.52   0
   6   1  -7   13.89    0.64   0
   6   7  -7    4.16    0.63   0
   7   9  -7   31.90    0.98   0
   9   4  -8   12.90    0.63   0
   9  10  -7    1.70    0.56   0
  10   3  -8    0.19    0.45   0
  10   4  -8    1.15    0.46   0
  10   5  -8    5.90    0.51   0
  10  10  -7    3.10    0.51   0
   2   9  -4    0.28    0.43   0
   3  -1  -5   90.89    0.88   0
   3   9  -5  182.46    1.52   0
   4  -3  -5    9.20    0.44   0
   4   0  -6   12.06    0.53   0
   6  11  -6    7.20    0.70   0
   9   2  -8   20.86    0.71   0
   9   3  -8    2.91    0.52   0
   9   5  -8    0.40    0.48   0
  10   2  -8    0.01    0.46   0
  11   3  -8    2.02    0.44   0
  11   4  -8    0.04    0.39   0
  11   5  -8    1.35    0.42   0
   2   3  -5   10.23    0.44   0
   2   4  -5   12.09    0.47   0
   2   5  -5   14.29    0.51   0
   4   8  -6   31.74    0.85   0
   4  11  -5   52.65    0.98   0
   5   3  -7   24.74    0.77   0
   5   4  -7   -0.08    0.53   0
   5   5  -7    9.16    0.65   0
   6   8  -7   19.77    0.81   0
   7  12  -6    0.11    0.60   0
   8   3  -8    1.29    0.52   0
   8   4  -8    6.03    0.57   0
   9   1  -8    1.84    0.50   0
  10   7  -8    0.51    0.43   0
  11   6  -8    1.92    0.40   0
   1   4  -4  759.88    2.24   0
   1   5  -4  116.95    0.94   0
   5   2  -7    3.70    0.54   0
   6  -1  -7   16.64    0.64   0
   7  -2  -7   10.35    0.63   0
   8   2  -8   27.13    0.79   0
   8   6  -8    5.05    0.58   0
   9  -3  -7   -0.07    0.60   0
   9  11  -7    0.45    0.57   0
  11   1  -8    7.10    0.52   0
   1   6  -4   81.54    0.83   0
   3  -2  -5   13.26    0.45   0
   3   3  -6   39.49    0.76   0
   3   4  -6   42.26    0.80   0
   3   5  -6   84.62    1.08   0
   4  -1  -6   34.83    0.69   0
   4   9  -6    2.40    0.61   0
   5   1  -7   73.84    1.07   0
   6  -4  -6    2.48    0.62   0
   6   9  -7   -0.11    0.58   0
   7   3  -8    0.52    0.52   0
   7   4  -8    0.13    0.53   0
   8   1  -8    2.72    0.54   0
   8   7  -8   10.27    0.63   0
   9   8  -8    3.61    0.57   0
  10   0  -8   41.06    0.86   0
  12   2  -8    6.48    0.45   0
   3  10  -5   57.08    0.94   0
   5  -3  -6  261.25    1.66   0
   5  11  -6    0.40    0.62   0
   6  12  -6    5.21    0.67   0
   7   2  -8    4.73    0.56   0
   7   6  -8    0.20    0.53   0
   8   0  -8    3.25    0.64   0
   8  11  -7    2.43    0.56   0
  11   0  -8    2.12    0.49   0
   1   7  -4   18.25    0.51   0
   3   7  -6    0.31    0.52   0
   5   8  -7   14.27    0.73   0
   6  -2  -7   10.26    0.61   0
   7  -3  -7    4.28    0.59   0
   7   1  -8    0.40    0.52   0
   7   7  -8   11.95    0.66   0
   8   8  -8    2.73    0.53   0
   5   6  -3    0.54    0.38   0
   5  14  -3    3.62    0.66   0
   6  12  -3    0.76    0.60   0
   7  14  -2    2.99    0.65   0
   8   7  -1    4.71    0.65   0
   8  13  -1    0.23    0.55   0
   8  14   0    0.10    0.44   0
   5  18  -1    8.00    0.67   0
   6   3  -1  175.78    1.41   0
   6   9  -3  106.23    1.30   0
   6  17  -1    0.59    0.56   0
   7  13  -2    0.86    0.64   0
   8  12  -1    3.04    0.66   0
   8  13   2    8.47    0.61   0
   8  14   1    0.46    0.46   0
   4  14  -3   42.17    0.98   0
   4  17  -2    5.10    0.73   0
   6   5  -2   -0.05    0.47   0
   6  15  -2    2.23    0.66   0
   7   4   0   33.04    0.75   0
   7   5  -1    5.39    0.56   0
   7  15  -1   12.46    0.67   0
   7  16   0    2.16    0.45   0
   8   7   0   18.11    0.79   0
   8   9  -1   37.23    1.06   0
   8  11  -1    1.04    0.68   0
   8  13   0    8.43    0.62   0
   8  13   1   -0.13    0.59   0
   5   8  -3   24.29    0.66   0
   5  16  -2    7.69    0.76   0
   7   9  -2   27.99    0.99   0
   7  10  -2    9.15    0.80   0
   7  11  -2    0.74    0.73   0
   7  16   1    5.27    0.48   0
   8   7   1    8.57    0.72   0
   8   8   0   34.96    0.98   0
   8   9   2   -0.15    0.67   0
   8  10   2    0.80    0.75   0
   8  11   2    8.48    0.70   0
   8  12   0    3.53    0.61   0
   4  13  -3    2.61    0.61   0
   5  10  -3   17.19    0.66   0
   5  11  -3    0.78    0.56   0
   6  14  -2    3.76    0.72   0
   6  16  -1    2.79    0.60   0
   7   6  -1    2.06    0.55   0
   7  14  -1    0.99    0.59   0
   7  14   3    0.04    0.53   0
   8   8   1    0.90    0.66   0
   8   9   0    0.64    0.65   0
   8  10   0    7.90    0.74   0
   8  11   0    1.77    0.64   0
   8  11   1    4.55    0.75   0
   8  12   1    0.36    0.56   0
   3  13  -3    2.36    0.67   0
   4   7  -3   21.40    0.54   0
   4  16  -2    0.28    0.81   0
   4  18  -1    8.52    0.77   0
   4  19   0    2.05    0.63   0
   5  17  -1    0.07    0.63   0
   6  17   0    2.06    0.50   0
   7  15   2    3.28    0.49   0
   8  10   1   10.23    0.79   0
   3   7  -3   92.64    0.87   0
   4  11  -3    1.16    0.60   0
   4  12  -3   11.53    0.65   0
   5  18   0    1.17    0.55   0
   6   3   0   59.41    0.84   0
   6  13  -2    9.08    0.78   0
   7   5   2   29.10    0.87   0
   7   7  -1   74.86    1.22   0
   7  13  -1    0.78    0.65   0
   7  15   1    0.81    0.47   0
   3  12  -3    4.00    0.55   0
   3  18  -1    3.78    0.82   0
   4  10  -3    0.38    0.46   0
   6  12  -2   14.05    0.85   0
   6  15  -1    0.67    0.63   0
   7   5   1    9.20    0.65   0
   7   8  -1   15.49    0.83   0
   7  13   3    0.72    0.56   0
   7  14   0    7.44    0.62   0
   7  14   2    5.40    0.65   0
   3  16  -2   11.14    0.82   0
   3  19   0    1.27    0.75   0
   5  14  -2    5.78    0.76   0
   5  18   1    0.31    0.50   0
   6   3   1    1.43    0.44   0
   6   9  -2    1.46    0.63   0
   6  10  -2   33.02    0.99   0
   6  11  -2    0.59    0.66   0
   6  16   0    0.15    0.52   0
   7   6   0   31.41    0.84   0
   7   6   2   15.90    0.90   0
   7   9  -1    0.08    0.70   0
   7  10  -1   86.50    1.51   0
   7  11  -1    1.49    0.76   0
   7  14   1   -0.01    0.50   0
   3   9  -3  127.35    1.12   0
   3  10  -3    9.33    0.52   0
   4  15  -2    1.79    0.73   0
   4  17  -1    3.33    0.77   0
   5   6  -2    3.04    0.46   0
   5  16  -1    1.26    0.69   0
   6  14  -1   19.78    0.88   0
   6  14   4    1.43    0.52   0
   7   6   1    1.57    0.61   0
   7   7   0    1.31    0.58   0
   7   8   3    3.31    0.76   0
   7   9   3    0.54    0.85   0
   7  11   3    0.02    0.67   0
   7  13   0   10.41    0.70   0
   7  13   2   -0.03    0.55   0
   4  18   0    1.24    0.71   0
   5  13  -2    7.76    0.75   0
   5  17   0   30.79    0.92   0
   6  16   2   -0.19    0.44   0
   7  10   3   15.92    0.85   0
   7  13   1    1.05    0.59   0
   2  19   0    1.63    0.75   0
   3  15  -2    6.98    0.81   0
   5  12  -2    3.84    0.70   0
   6  13  -1   33.48    1.07   0
   6  13   4    0.70    0.65   0
   6  15   0   15.73    0.74   0
   6  15   3    9.39    0.60   0
   7   8   0   66.18    1.20   0
   7   9   0   45.58    1.10   0
   7  10   0   32.14    1.02   0
   7  12   1    5.05    0.69   0
   7  12   2   17.29    0.82   0
   3  17  -1    2.17    0.83   0
   5  11  -2   72.00    1.22   0
   5  15  -1   38.84    1.11   0
   5  17   1    0.76    0.54   0
   6   4   1   96.91    1.10   0
   6  12  -1    1.84    0.72   0
   6  15   1    2.60    0.55   0
   7   8   1    2.49    0.70   0
   7  11   1   25.04    0.93   0
   4  18   1    3.70    0.66   0
   5   9  -2    1.97    0.56   0
   5  10  -2   33.66    0.91   0
   5  16   0    2.19    0.67   0
   5  17   2    2.69    0.53   0
   6   5   0    0.46    0.46   0
   6   8  -1    3.46    0.67   0
   6  11  -1   93.37    1.55   0
   6  14   0    4.95    0.68   0
   6  14   3    4.65    0.60   0
   6  15   2    0.26    0.50   0
   7   9   1    1.16    0.68   0
   2  17  -1    7.77    1.02   0
   3  14  -2    0.75    0.71   0
   3  18   0   16.19    0.94   0
   4  17   0    1.41    0.72   0
   4  18   2    6.57    0.61   0
   5  14  -1   31.52    1.08   0
   6  11   4    4.53    0.82   0
   5   5  -1  115.42    1.16   0
   5  13   5    1.42    0.49   0
   5  13   5    0.50    0.32   0
   5  16   3    0.61    0.52   0
   6   6   0    0.53    0.51   0
   6  10   4    3.91    0.77   0
   6  14   1   25.98    0.85   0
   6  14   2   -0.28    0.57   0
   2  19   1   -0.00    0.74   0
   3  13  -2    6.16    0.69   0
   3  16  -1   53.27    1.32   0
   4  11  -2   14.98    0.74   0
   4  15  -1    0.38    0.79   0
   5  13  -1   -0.24    0.72   0
   5  15   0    0.08    0.64   0
   5  16   1    0.15    0.55   0
   5  16   2    0.99    0.53   0
   6   5   2   54.67    1.00   0
   2  18   0    0.32    0.80   0
   4   8  -2    4.53    0.46   0
   4   9  -2   -0.04    0.46   0
   4  10  -2    1.25    0.52   0
   4  17   1    3.03    0.67   0
   5  12   5    0.84    0.65   0
   6   7   0   78.75    1.21   0
   6  11   0   44.95    1.16   0
   6  13   2    7.90    0.72   0
   3  12  -2    2.01    0.62   0
   3  17   0   -0.64    0.80   0
   3  18   1    5.08    0.76   0
   4  15   5    1.06    0.54   0
   4  16   0    0.22    0.73   0
   4  17   3    4.28    0.59   0
   5  12  -1   -0.23    0.71   0
   5  14   0    3.40    0.70   0
   5  15   3    3.52    0.59   0
   6   6   2   54.29    1.07   0
   6   7   3    8.02    0.79   0
   6   8   0   20.54    0.84   0
   6   9   0    3.21    0.71   0
   6  10   0   40.72    1.13   0
   6  11   3    1.78    0.71   0
   6  12   1   12.15    0.79   0
   1  18   0   11.73    0.97   0
   1  19   1    3.22    0.83   0
   2  16  -1    0.55    0.85   0
   2  19   2    0.75    0.68   0
   3  18   2    1.52    0.76   0
   3  18   3   21.85    0.88   0
   4  16   4    1.58    0.62   0
   4  17   2    0.03    0.56   0
   5   3   2   66.76    0.90   0
   5  15   2    7.31    0.65   0
   6   7   1  144.02    1.56   0
   6   8   3    0.58    0.74   0
   6  10   3   49.21    1.20   0
   6  12   2    3.13    0.69   0
   1  16  -1    3.33    1.00   0
   3   7  -2   40.97    0.68   0
   5  13   0   35.53    1.06   0
   5  13   4    0.07    0.72   0
   6   8   1   15.80    0.82   0
   6   9   1    6.59    0.75   0
   6  11   2    8.98    0.80   0
   2  17   0   25.29    1.14   0
   3   8  -2   72.12    0.90   0
   4  13  -1    3.32    0.76   0
   4  14   5    0.52    0.66   0
   4  15   0    2.64    0.76   0
   4  16   1    3.74    0.70   0
   5   4   1    0.41    0.47   0
   5   5   0    0.11    0.32   0
   5  14   3    4.93    0.68   0
   6  10   2    0.31    0.69   0
   3  16   0    5.93    0.89   0
   3  17   1    0.12    0.74   0
   3  17   4    0.14    0.54   0
   4  12  -1   24.04    0.96   0
   4  16   3   25.74    0.86   0
   5  12   0   13.38    0.87   0
   5  12   4    0.97    0.81   0
   5  14   2   11.02    0.73   0
   3  14   6    5.16    0.61   0
   4   6  -1   41.22    0.81   0
   4  15   4   48.25    1.02   0
   5   4   2  105.50    1.13   0
   5  13   1   -0.41    0.64   0
   1  11  -2   -0.19    0.57   0
   1  15  -1   31.19    1.21   0
   1  17   0   -0.55    0.89   0
   1  18   1   30.50    1.17   0
   2   9  -2    0.36    0.39   0
   2  10  -2   25.16    0.67   0
   2  18   2    9.74    0.88   0
   3  17   2    0.53    0.69   0
   4  11  -1    1.69    0.67   0
   4  13   5    1.88    0.67   0
   5  10   0  113.95    1.59   0
   5  13   2   26.45    0.93   0
   0  19   2    9.15    0.93   0
   2  14  -1   83.22    1.53   0
   2  18   3   -0.19    0.66   0
   3  13  -1   41.80    1.12   0
   3  15   0   12.46    0.96   0
   4   7  -1   14.94    0.53   0
   4   9  -1    6.09    0.63   0
   4  15   2    7.40    0.71   0
   4  15   3   24.72    0.88   0
   5   5   3   45.42    0.97   0
   5   8   4    3.17    0.92   0
   5  12   3    0.78    0.69   0
  -1  19   2    2.34    0.93   0
   0  18   1    0.78    1.03   0
   1  10  -2  146.54    1.21   0
   2  17   1    0.90    0.85   0
   3  13   6    6.45    0.67   0
   3  15   5    0.61    0.60   0
   3  16   1    0.28    0.74   0
   3  16   4   16.55    0.79   0
   4  12   5    0.80    0.80   0
   4  13   0    4.31    0.75   0
   4  14   4    1.14    0.66   0
   5   5   2    6.35    0.57   0
   5   6   1    0.26    0.49   0
   5  11   1    2.93    0.67   0
   0  19   3    1.54    0.80   0
   2  15   6    0.53    0.60   0
   3  12  -1   13.19    0.80   0
   4  14   1    0.74    0.64   0
   5   6   3    1.44    0.66   0
   5   7   1  305.15    2.09   0
   5  10   1   -0.17    0.63   0
   5  11   2    0.44    0.67   0
   5  11   3   60.08    1.25   0
   1  14  -1   15.95    0.93   0
   1  16   0    1.23    0.94   0
   1  18   2    1.31    0.86   0
   1  18   4    0.66    0.66   0
   2  13  -1    3.49    0.75   0
   2  17   2   27.71    1.08   0
   2  17   4    2.32    0.65   0
   3  11  -1   74.70    1.19   0
   3  14   0    7.28    0.85   0
   3  16   2    3.09    0.72   0
   3  16   3    0.35    0.64   0
   4  13   4   45.39    1.09   0
   4  14   2    7.76    0.73   0
   5   8   1   52.58    1.06   0
   5   9   1  108.67    1.45   0
   5   9   3   14.18    0.88   0
  -1  19   3    1.74    0.82   0
   1  18   3    0.76    0.80   0
   2  16   5    3.95    0.62   0
   2  17   3    2.75    0.72   0
   3  12   6   -0.25    0.67   0
   3  15   1    2.43    0.75   0
   4  10   5    3.64    0.89   0
   4  11   0  109.33    1.51   0
   5   8   2   21.85    0.85   0
   5   9   2    0.32    0.66   0
   0  14  -1   45.21    1.11   0
   0  16   0    4.44    1.07   0
   1  17   5    7.77    0.65   0
   3  10  -1    4.25    0.58   0
   3  15   4    0.55    0.65   0
   4   6   0   14.34    0.62   0
   4   9   5    6.67    0.84   0
   4  10   0  149.57    1.67   0
   4  13   3   -0.04    0.65   0
   2  14   6    6.19    0.67   0
   3   7  -1   29.81    0.67   0
   3   8  -1   28.39    0.70   0
   3   9  -1   64.47    0.98   0
   3  13   0    0.84    0.71   0
   3  15   2    2.06    0.71   0
   3  15   3   36.12    1.03   0
   4   7   0   86.19    1.15   0
   0  17   1    5.08    1.00   0
   0  18   3    9.20    1.04   0
   0  18   4    1.29    0.72   0
   1  15   0    0.97    0.88   0
   1  17   2   51.62    1.36   0
   2  14   0    0.54    0.79   0
   2  16   2   20.50    0.98   0
   2  16   4    9.59    0.75   0
  -1  18   2    0.23    0.92   0
   2  15   5    1.64    0.63   0
   2  16   3    0.81    0.72   0
   3  12   0   45.34    1.07   0
   4  11   1   14.12    0.74   0
   4  12   2    0.77    0.61   0
  -2  18   2    2.97    0.92   0
  -1  17   1    2.44    0.95   0
   0  13  -1   42.03    1.00   0
   1  15   6    0.38    0.64   0
   1  16   1   62.29    1.47   0
   1  17   3    6.27    0.84   0
   2  15   1   25.34    0.92   0
   3  14   3   89.65    1.38   0
   4   5   1  199.42    1.41   0
   4  10   1   16.59    0.75   0
   4  10   4    5.17    0.77   0
   4  11   3   -0.69    0.61   0
  -1  18   3    0.94    1.02   0
   0  17   5    0.79    0.64   0
   1  13   7    0.39    0.57   0
   1  16   5    3.02    0.65   0
   2  10  -1   43.62    0.82   0
   2  13   0    0.58    0.69   0
   3  11   0   31.50    0.90   0
   3  12   5   -0.11    0.68   0
   3  13   1   22.18    0.84   0
   4   6   1  184.85    1.44   0
   4   8   4    3.23    0.68   0
   4   9   1   15.74    0.70   0
   4   9   4   16.64    0.86   0
   4  11   2    1.17    0.44   0
  -1  18   4    0.61    0.78   0
   0  16   6    0.17    0.55   0
   0  17   2   23.09    1.15   0
   2   9  -1   44.37    0.77   0
   2  15   2   50.57    1.20   0
   2  15   4    2.54    0.67   0
   3  13   4    6.34    0.74   0
   4   5   2    8.03    0.50   0
   4   5   3    1.15    0.51   0
   4   7   1   23.38    0.69   0
   4   8   1    1.93    0.52   0
   4  10   2   15.64    0.73   0
   4  10   3    2.55    0.66   0
  -2  18   3    0.37    0.95   0
  -1  15   0    0.90    0.84   0
   0  12  -1    0.73    0.57   0
   0  17   4    0.42    0.85   0
   1  16   2    8.84    0.93   0
   2   8  -1   29.58    0.62   0
   2  12   6   11.72    0.78   0
   2  14   1   70.82    1.31   0
   3  10   0    2.12    0.42   0
   3  12   1   26.38    0.83   0
   3  13   3   38.45    0.99   0
   4   9   2   17.76    0.72   0
   4   9   3   16.98    0.77   0
  -3  18   3    2.16    0.93   0
  -2  18   4    2.39    0.91   0
  -1  17   2    1.76    1.07   0
   0  14   7   -0.14    0.53   0
   0  17   3    3.94    0.85   0
   1  12   7    0.56    0.60   0
   1  14   6    0.24    0.56   0
   1  16   3   22.09    0.98   0
   2  12   0   24.49    0.85   0
   3  12   4    0.08    0.66   0
   4   7   2   44.27    0.84   0
   4   7   3  129.06    1.38   0
   4   8   2   57.92    0.99   0
  -1  16   1    4.07    0.93   0
   0  14   0  133.91    1.67   0
   1  10  -1   58.23    0.83   0
   1  15   5    0.93    0.62   0
   2  14   4   13.39    0.78   0
   3   8   0  199.73    1.51   0
   3  10   5    8.42    0.77   0
   3  11   1   14.42    0.66   0
   3  12   2  263.31    1.96   0
  -3  18   4    4.96    0.82   0
  -2  16   1   -0.35    1.00   0
  -2  17   2   12.71    1.14   0
  -1  17   5    0.73    0.64   0
   0  11  -1   66.45    0.92   0
   0  16   2   11.16    0.95   0
   0  16   5   14.51    0.78   0
   2  11   6    0.44    0.66   0
   2  13   1    0.48    0.60   0
   2  13   5    9.67    0.72   0
   2  14   3   38.46    0.99   0
   3   9   5   28.72    0.92   0
  -3  17   2   44.75    1.24   0
  -1  16   6   -0.04    0.55   0
  -1  17   3    1.59    0.84   0
  -1  17   4    2.54    0.79   0
   0  15   6    5.06    0.62   0
   1  11   7    8.42    0.70   0
   1  14   1    0.23    0.70   0
   1  15   2    1.85    0.74   0
   3   8   5    1.13    0.65   0
  -8   8   6    7.30    0.85   0
  -8  14   1   -0.89    1.08   0
  -7  14   1    0.67    1.11   0
  -4   9   4    2.32    0.64   0
  -4  12   2   89.60    1.59   0
  -1   8   1   95.13    0.98   0
  -1   9  -1    0.45    0.49   0
 -11  12   4   -0.25    0.69   0
  -9  11   5    1.73    0.83   0
  -9  14   1    0.79    0.82   0
  -8  11   5    0.14    0.77   0
  -8  14   0    0.37    0.91   0
  -8  14   2    3.38    1.05   0
  -7  12   4   -0.12    0.85   0
  -7  14   0    5.20    1.19   0
  -6  14   0    3.54    1.27   0
  -5   8   5   81.31    1.32   0
  -5  12   3    0.30    0.79   0
  -5  13   2    8.58    1.12   0
  -4   5   5    7.02    0.55   0
  -4  11   3    1.65    0.73   0
  -3   7   4    1.69    0.48   0
  -3  12  -1   25.45    0.99   0
  -2   7   3  192.51    1.45   0
  -2  11   0    1.81    0.52   0
  -1   9   0  126.70    1.11   0
 -10   9   6   -0.42    0.73   0
  -9  14   2    2.11    0.97   0
  -7  14   2    3.71    1.10   0
  -6   6   6  133.37    1.60   0
  -6  14   1   14.48    1.24   0
  -4   6   5    0.24    0.52   0
  -4  13  -1    5.05    1.06   0
  -4  13   1    3.84    0.98   0
  -3  12   1   13.59    0.89   0
 -11   9   6    0.59    0.78   0
  -9  13   4    5.60    1.10   0
  -9  14   0   -0.44    0.88   0
  -8   9   6   17.37    1.07   0
  -7  11   5   93.70    1.80   0
  -6  12   4   69.17    1.54   0
  -6  14   2    3.83    1.12   0
  -5  14   0    4.43    1.30   0
  -3  10   3    7.56    0.55   0
  -2   8   3   55.12    0.98   0
 -10  13   4   -0.76    1.03   0
 -10  14   2    0.33    0.84   0
  -8  13   4    0.90    1.04   0
  -8  14   3   27.10    1.63   0
  -6  14  -1   30.97    1.66   0
  -5  14   1   43.16    1.84   0
  -4   7   5   16.21    0.91   0
  -4  10   4    9.86    0.85   0
  -2  10   2   19.74    0.69   0
  -1   9   1   91.71    1.10   0
  -1  10  -1    0.97    0.61   0
 -10  10   6    3.31    0.92   0
 -10  12   5    2.40    0.94   0
  -9  10   6    1.37    0.93   0
  -8  12   5   14.70    1.17   0
  -7  13   4    2.07    1.18   0
  -7  14   3    7.28    1.40   0
  -5  14  -1    1.96    1.34   0
  -4  13   2    0.37    1.05   0
  -3  12   2    2.27    0.93   0
  -1  10   0   97.23    1.21   0
 -10  14   3    0.75    0.93   0
  -7   9   6    2.97    0.96   0
  -7  15   1   16.47    1.24   0
  -6  11   5    2.45    0.80   0
  -5  12   4   14.69    0.98   0
  -5  14   2    7.10    1.31   0
  -3  11   3    7.83    0.75   0
  -3  13  -1   22.82    1.07   0
  -2   9   3   64.99    1.02   0
 -11  10   6   -0.10    0.35   0
  -2   5  -6    0.83    0.81   0
  -1   4  -8   79.79    1.57   0
  -1   6  -7   -0.05    0.89   0
  -1   7  -6   11.86    0.94   0
  -1   7  -3   70.93    1.07   0
   0   8  -3    3.04    0.61   0
   1   2 -10    1.85    0.80   0
   1   6  -9    9.94    0.96   0
   2  10  -6    0.40    1.00   0
   2  10  -5   61.30    1.55   0
   3   6 -10    1.07    0.72   0
   3  10  -7    1.45    1.04   0
   3  10  -4   -0.10    0.95   0
   4   7 -10    4.66    0.75   0
   4  10  -4   10.26    1.17   0
  -3   3  -4    0.60    0.52   0
   0   6  -8   39.59    1.34   0
   2   7  -9    1.90    0.89   0
  -2   5  -3   20.69    0.58   0
  -1   3  -8    3.35    0.77   0
  -1   7  -4   -0.23    0.43   0
   1   9  -6    0.10    0.63   0
   1   9  -4    5.45    0.74   0
   2   9  -7    4.08    0.82   0
   3  10  -6   17.46    1.16   0
   3  10  -5   75.18    1.50   0
   4   9  -3  137.89    1.55   0
   4  10  -7   -0.47    0.87   0
   5   7 -10    1.18    0.68   0
   6  10  -7    0.29    0.97   0
  -2   4  -6  105.22    1.34   0
   0   8  -5    1.97    0.56   0
   0   8  -4    0.12    0.51   0
   1   5  -9   19.92    0.94   0
   1   7  -8    2.81    0.78   0
   1   8  -7    1.23    0.77   0
   5  10  -5   44.73    1.34   0
   0   5  -8    1.14    0.70   0
   2   6  -9   -0.09    0.64   0
   3   5 -10    1.41    0.58   0
   4   6 -10    0.72    0.53   0
   5   8  -9    0.58    0.65   0
   7   8  -9    0.69    0.76   0
   2   3 -10    0.12    0.56   0
   2   9  -4    0.37    0.44   0
   3   9  -7    0.13    0.74   0
   5   9  -8    2.15    0.77   0
   6   8  -9    0.47    0.69   0
  -2   3  -6    4.88    0.73   0
  -2   4  -3   15.95    0.50   0
  -1   6  -5    9.85    0.68   0
   0   6  -7   -0.15    1.13   0
   5   6 -10    3.65    0.74   0
   7   9  -7   29.29    1.35   0
  -1   6  -4   15.67    0.67   0
  -9  10   6    0.34    0.82   0
  -6   2   8   23.48    0.92   0
  -5   5   7    8.39    0.71   0
  -4   1   7  234.05    1.86   0
  -4  10   3    0.43    0.60   0
  -3   9   3  157.33    1.37   0
  -2   8   2   42.12    0.63   0
 -10   2   9    3.37    0.63   0
  -9  11   5    1.08    0.91   0
  -8  10   6   13.99    0.96   0
  -7   5   8    1.60    0.65   0
  -6   7   7    3.49    0.68   0
  -6  11   4    4.02    0.90   0
  -5   8   6   61.98    1.19   0
  -4   2   7  222.75    1.84   0
  -3   4   6   40.93    0.87   0
  -2   4   5   12.86    0.53   0
 -11  10   6   -0.49    0.73   0
 -10   3   9   -0.00    0.57   0
 -10   7   8    0.16    0.56   0
 -10   9   7   11.53    0.82   0
 -10  11   5    4.54    0.84   0
  -9   1   9   11.75    0.72   0
  -9   2   9    0.73    0.58   0
  -9   9   7    3.39    0.73   0
  -7  10   6    4.36    0.83   0
  -5   6   7    3.75    0.65   0
  -5  11   3    1.11    0.78   0
  -4   7   6   27.42    0.86   0
 -11   9   7    0.35    0.63   0
  -9   3   9    2.43    0.69   0
  -8   9   7    3.00    0.70   0
  -7   6   8    0.38    0.62   0
  -6   4   8    4.41    0.69   0
  -5  10   5   45.75    1.14   0
  -4   4   7    0.93    0.65   0
  -4   9   5    0.44    0.61   0
  -4  10   4   10.08    0.74   0
  -3   5   6   75.84    1.12   0
  -2   5   5   15.98    0.58   0
  -2   7   4   86.59    0.99   0
  -2   8   3   43.08    0.70   0
  -1   4   4  732.56    2.39   0
 -10   4   9   -0.00    0.56   0
  -8   1   9   11.15    0.78   0
  -8  12   4    6.44    1.11   0
  -6   5   8    7.04    0.77   0
  -6  11   5    3.91    1.13   0
  -5   9   6   31.33    1.07   0
  -3   9   4   51.09    0.96   0
 -10   8   8    4.15    0.73   0
  -8   3   9    0.15    0.72   0
  -8  11   6    3.25    1.20   0
  -7  12   4    0.11    1.21   0
  -6  10   6    4.14    0.88   0
  -5   0   8  184.59    2.02   0
  -5   1   8   19.37    0.97   0
  -5   2   8   73.17    1.44   0
  -3   6   6   22.25    0.92   0
  -3   8   5   81.76    1.24   0
  -3  10   2   12.82    0.66   0
  -2   6   5  146.13    1.52   0
 -10   5   9   12.70    0.86   0
 -10  11   6    0.37    0.93   0
  -2   9   2    0.18    0.53   0
  -2   8   4   40.83    0.91   0
   4   2  -2   35.22    0.60   0
  -1   4  -1 3728.39    2.13   0
   5  -1  -2  164.85    1.14   0
   5   3  -3  423.38    2.13   0
   7   0  -4   47.38    1.01   0
   1  -3   0   10.27    0.10   0
   4   7  -5   12.94    0.98   0
   5   0  -2  100.32    0.97   0
   6   1  -3  240.42    1.72   0
   3   1  -1  343.94    1.25   0
   3   6  -3   36.85    0.78   0
  -1   6  -2  668.10    1.55   0
   0   4  -1  548.62    1.16   0
   0   6  -2  768.19    2.01   0
   5   1  -2  197.54    1.35   0
   7   2  -4    4.15    0.64   0
  -2   0   0 1503.83    1.93   0
   1   6  -2    8.11    0.42   0
   2   3  -1 3798.82    3.97   0
   2   7  -3  174.54    1.51   0
   2   8  -4   43.30    1.08   0
   4   7  -4   22.25    0.89   0
   5   6  -4   75.72    1.27   0
   5   7  -5    1.38    0.85   0
  -3   3  -1  113.21    0.59   0
   4  -3  -1  112.22    0.73   0
   4  -2  -1   26.14    0.42   0
   1   4  -1  516.88    1.37   0
   3   2  -1  131.75    0.84   0
   3   5  -2   32.34    0.58   0
   4  -1  -1   10.43    0.34   0
   4   4  -2  439.94    1.96   0
   4   6  -3  280.24    1.92   0
   4   8  -5   18.61    1.14   0
   5   2  -2   58.67    0.85   0
   6   3  -3  115.87    1.30   0
   7  -1  -3   27.36    0.80   0
   3   7  -3  106.57    1.24   0
   3   8  -4    1.66    0.72   0
   4  -4  -1    2.07    0.23   0
   8   0  -4  124.65    1.64   0
  -1   0   0  373.14    0.66   0
   2   6  -2   -0.09    0.38   0
   6  -2  -2    1.59    0.41   0
   7   4  -4   14.86    0.79   0
   0  -4   0 4903.89    3.74   0
   5   3  -2  237.14    1.54   0
   6   4  -3   15.93    0.67   0
   7   1  -3   25.44    0.79   0
   1   8  -3  221.27    1.61   0
   6   0  -2   18.17    0.59   0
   2   4  -1   38.37    0.49   0
   4   5  -2   94.56    1.02   0
   4   7  -3   23.34    0.74   0
   5   6  -3    0.85    0.51   0
   2   8  -3   40.03    0.86   0
   3   6  -2  313.45    1.68   0
   4   9  -5    0.58    1.03   0
  -1  -2   0   45.04    0.36   0
   4  -5  -1    1.17    0.19   0
   5   4  -2   24.77    0.65   0
   7   3  -3   14.39    0.69   0
   1  -1   0  457.25    0.52   0
   4   2  -1   36.77    0.57   0
   6   2  -2    1.28    0.45   0
   6   7  -4    1.06    0.70   0
   0   5  -1   32.54    0.34   0
   1   5  -1   39.87    0.44   0
   2   7  -2    3.38    0.42   0
   3   4  -1    9.77    0.38   0
   4   6  -2  288.28    1.71   0
   4   9  -4    2.15    0.79   0
   5   5  -2   75.05    0.97   0
   5   7  -3    1.35    0.53   0
   6   3  -2   31.38    0.72   0
   6   6  -3    0.89    0.52   0
   7   4  -3   34.05    0.88   0
   9   0  -4   51.73    1.23   0
   0  -2   0  604.43    0.84   0
   2   5  -1  189.91    1.00   0
   4   3  -1  149.20    1.04   0
   5  -2  -1    2.72    0.39   0
   9   1  -4    4.01    0.82   0
   1   0   0  369.71    0.63   0
   3   7  -2   35.61    0.69   0
   5  -3  -1   34.01    0.52   0
   5   1  -1  317.90    1.53   0
   5   9  -4    0.58    0.77   0
   6   4  -2    8.41    0.53   0
   7  -1  -2    1.19    0.46   0
   7   5  -3   89.56    1.30   0
   7   7  -4    5.27    0.76   0
   3   5  -1  284.05    1.35   0
   3   9  -3  143.43    1.57   0
   7  -3  -2   17.32    0.63   0
   7   1  -2    1.85    0.49   0
   4   7  -2  184.12    1.45   0
   5   2  -1    1.29    0.39   0
   1   1   0  774.63    1.08   0
   2   8  -2   39.93    0.70   0
   6   5  -2    0.67    0.46   0
   8   4  -3    2.39    0.64   0
  -1   7  -2   46.67    0.39   0
   1   6  -1  151.19    0.85   0
   1   8  -2   70.85    0.78   0
   2  -1   0   17.61    0.21   0
   2   0   0 1574.19    1.85   0
   2   6  -1    6.34    0.37   0
   3   8  -2   75.99    1.02   0
   5   3  -1   41.10    0.69   0
   2   1   0   26.12    0.32   0
   4   5  -1    2.16    0.40   0
   3   6  -1   66.43    0.77   0
   5   4  -1  159.64    1.24   0
   5  10  -4    0.56    0.90   0
   1   2   0   39.97    0.32   0
   4   8  -2    5.45    0.53   0
   6  -1  -1   11.62    0.48   0
   6   1  -1   12.76    0.52   0
   9   2  -3   12.77    0.85   0
   2   2   0    1.08    0.21   0
   3  10  -3    9.94    0.91   0
   6  -2  -1  218.83    1.36   0
   6   2  -1  202.33    1.46   0
   7   5  -2   12.79    0.68   0
   8   0  -2  273.06    2.02   0
   2  -2   0    0.43    0.10   0
   3   0   0 1633.04    2.43   0
   3   1   0    2.05    0.25   0
   4   6  -1   38.47    0.71   0
   4  10  -3    0.31    0.86   0
   2   7  -1  470.71    1.84   0
   2   9  -2    0.48    0.56   0
   3  -1   0    1.41    0.18   0
   3   2   0  236.39    1.08   0
   3   9  -2  104.10    1.30   0
   1   3   0   13.51    0.28   0
   2   3   0   32.32    0.42   0
   3   7  -1   32.22    0.66   0
   6   4  -1   94.37    1.15   0
   7   6  -2   88.10    1.34   0
   5   6  -1    7.05    0.54   0
   1   9  -2   22.99    0.60   0
   6   8  -2   19.25    0.90   0
  -2   2  -1  317.00    1.00   0
   2   4   0    6.09    0.32   0
   3  -2   0  130.19    0.65   0
   4   0   0 1070.61    2.53   0
   4   2   0  325.77    1.55   0
   5   9  -2    1.83    0.74   0
   6   5  -1  108.81    1.32   0
   7   2  -1   21.22    0.79   0
   7   7  -2    0.60    0.73   0
   8   5  -2   24.66    1.01   0
   0   2   0  620.99    0.90   0
   4  -1   0   25.33    0.50   0
   4   3   0  230.11    1.44   0
   7  -1  -1    7.45    0.62   0
   7   3  -1   50.70    1.09   0
  -2   1  -1  562.08    1.56   0
   1   4   0 3579.22    3.75   0
   4  11  -3    1.32    1.07   0
   5   7  -1   13.50    0.72   0
   8   6  -2    5.70    0.93   0
   9   1  -2    8.54    1.02   0
   0   7  -1  221.79    1.13   0
   4   4   0   78.74    1.03   0
   4  10  -2    1.59    0.84   0
   5  11  -3    1.29    1.20   0
   6   9  -2    1.87    0.91   0
   7   4  -1    3.08    0.70   0
   7   8  -2   32.25    1.27   0
   9   0  -2   44.18    1.33   0
   9   3  -2   88.33    1.78   0
   3   5   0   12.24    0.59   0
   5   1   0    1.40    0.54   0
   5   2   0   29.32    0.78   0
   7   5  -1    5.81    0.83   0
  -7   1  -2   17.92    1.59   0
  -7   2  -2  205.96    3.09   0
  -5  -1  -2   20.72    1.12   0
  -4  -4  -1    7.16    0.71   0
  -3   5  -2   47.39    1.07   0
  -7   3  -2    0.45    0.82   0
  -6  -4  -1   96.32    1.43   0
  -6   0  -2    7.57    0.89   0
  -6   5  -2   53.21    1.61   0
  -5  -4  -1   -0.08    0.55   0
  -5   6  -2    0.08    0.74   0
  -3   1  -2    2.01    0.60   0
  -5   0  -2  158.91    1.56   0
  -5   5  -2    5.94    0.76   0
  -4   0  -2  209.31    1.53   0
  -4   5  -2    8.45    0.69   0
  -3   2  -2  114.09    1.14   0
  -3   4  -2  535.63    2.48   0
  -1   8   0   44.61    0.54   0
  -4   1  -2   15.51    0.57   0
  -4   4  -2   74.34    0.98   0
  -2  -2  -1  283.18    1.05   0
  -1   5  -1 1316.08    2.51   0
  -5   3  -2   53.21    0.93   0
  -4   2  -2    2.50    0.41   0
  -4   3  -2   23.67    0.64   0
  -3  -5   0    6.62    0.21   0
  -2   7  -1  751.84    2.45   0
   0  -2   1   12.81    0.22   0
  -1   4  -1 3880.37    3.97   0
  -7  -2  -1   -0.46    0.62   0
  -5  -3  -1  241.46    1.51   0
  -1   2  -1  458.66    1.32   0
  -1   3  -1 9999.99    6.42   0
  -7   6  -1    1.53    0.84   0
  -2   6  -1   18.46    0.53   0
  -6  -2  -1   48.48    1.08   0
  -4   7  -1   17.21    0.85   0
  -2  -1  -1  631.03    1.65   0
  -3  -2  -1    8.28    0.38   0
  -1   7   0   15.79    0.52   0
  -7   1  -1    7.37    0.96   0
  -3   6  -1    3.40    0.69   0
  -3   9   0   13.42    0.90   0
  -7   2  -1   -0.27    0.99   0
  -6   5  -1   37.33    1.41   0
  -6   9   0    2.46    1.40   0
  -5   6  -1   -0.24    0.88   0
  -4  -2  -1    0.95    0.54   0
  -4   6  -1  207.16    2.14   0
   0   4   0 4884.78    3.49   0
  -9   0   0    0.03    1.35   0
  -5  -5   0    0.06    0.54   0
  -5   9   0   74.84    1.88   0
  -4  -5   0  184.27    1.17   0
  -4   9   0   23.04    1.22   0
  -2   4  -1 1123.45    3.26   0
  -6   3  -1    0.86    0.81   0
  -5  -1  -1    7.83    0.69   0
  -3  -1  -1    3.16    0.41   0
  -3   5  -1    9.85    0.74   0
   0  -3   1   17.49    0.41   0
   1   2   1  372.30    1.23   0
  -6   2  -1   50.27    1.28   0
  -4  -1  -1    8.75    0.54   0
  -2   3  -1    3.49    0.43   0
   1   1   1 1708.77    2.77   0
   1   3   1 8734.02    4.95   0
  -7   7   0    1.26    1.15   0
  -5   4  -1    0.87    0.51   0
  -3   4  -1  429.03    1.99   0
  -5   2  -1   39.70    0.86   0
  -5   3  -1  140.94    1.41   0
  -4   4  -1    3.71    0.41   0
  -3   3  -1  117.25    0.87   0
  -8   5  -4    2.47    0.95   0
  -7  -1  -5    1.85    0.80   0
  -6  -3  -5    7.01    0.83   0
  -6   1  -5    2.43    0.77   0
  -6   6  -4   13.34    1.03   0
  -6   8  -3   -0.34    1.07   0
  -5  -3  -5   51.58    1.15   0
  -4  -2  -5    2.00    0.64   0
  -3  -6  -4    0.65    0.70   0
  -2   3  -4    6.53    0.57   0
  -2   7  -1  799.33    2.01   0
  -1   3  -3  457.54    1.89   0
  -9   7  -3    2.58    1.06   0
  -7   6  -4   42.08    1.42   0
  -6   2  -5    8.15    0.88   0
  -5   6  -4    8.67    0.94   0
  -5   8  -3    1.02    0.89   0
  -4  -3  -5    1.06    0.65   0
  -4   2  -5    2.05    0.70   0
  -8   8  -3    0.22    1.17   0
  -7   2  -5    0.02    0.84   0
  -6  -4  -5    1.84    0.80   0
  -4  -4  -5    0.98    0.78   0
  -4   6  -4  253.67    2.39   0
  -3   8  -2   11.37    0.70   0
  -2  -5  -4    8.07    0.68   0
  -1  -1  -4   64.96    0.95   0
  -1   5  -2  258.76    1.16   0
   0   1  -2  287.65    1.07   0
  -8  -2  -5    1.50    0.84   0
  -8   6  -4    4.91    1.03   0
  -7   3  -5    3.01    0.92   0
  -2   4  -4   71.42    1.11   0
  -2   6  -3   21.37    0.66   0
  -1   1  -4   87.06    1.10   0
  -1   4  -3  262.03    1.46   0
  -8   2  -5    1.54    0.84   0
  -6  -5  -5    5.83    0.91   0
  -6   4  -5    2.45    0.92   0
  -5  -5  -5    0.78    0.79   0
  -5   4  -5    7.76    0.91   0
  -5   7  -4    0.40    0.93   0
  -4   9  -2   15.66    0.85   0
  -2   7  -2  310.06    1.58   0
  -1   2  -4   33.35    0.79   0
   0   2  -2   21.88    0.35   0
  -7   4  -5    8.31    1.03   0
  -4  -5  -5   30.76    1.03   0
  -3   6  -4    1.00    0.73   0
  -2  -1  -5    3.26    0.61   0
  -7   9  -3   -0.27    1.11   0
  -6   5  -5    8.27    1.04   0
  -6   9  -3   30.47    1.36   0
  -5   5  -5    1.08    0.89   0
  -4   7  -4   51.36    1.37   0
  -2  -2  -5   21.17    0.80   0
  -2   5  -4    7.15    0.66   0
  -1   3  -4  133.61    1.33   0
   0  -1  -3  105.88    0.84   0
   0   1  -3  248.94    1.31   0
  -7   5  -5   11.73    1.09   0
  -5   9  -3   13.60    1.13   0
  -3   4  -5   11.77    0.86   0
  -3   8  -3    2.78    0.82   0
  -1   5  -3   33.00    0.62   0
   0  -2  -3   47.07    0.60   0
  -5   0  -6    0.51    0.77   0
  -3  -5  -5   50.93    1.15   0
   0   3  -2   17.05    0.33   0
  -7   8  -4    1.74    1.10   0
  -6  -1  -6    9.01    0.95   0
  -6   0  -6   36.57    1.23   0
  -6   1  -6    8.96    0.91   0
  -6   6  -5   26.06    1.31   0
  -5  -2  -6    7.03    0.91   0
  -5  -1  -6    1.34    0.77   0
  -5   1  -6    0.94    0.83   0
  -5   6  -5    3.14    0.98   0
  -4  -1  -6   13.86    0.91   0
  -4   0  -6    2.40    0.78   0
  -4   1  -6   12.45    0.92   0
  -4   9  -3   17.80    1.07   0
  -3   7  -4   10.46    0.89   0
  -2  -4  -5    3.46    0.70   0
  -2   6  -4   12.09    0.75   0
  -1   4  -4   82.85    1.10   0
  -7   6  -5    0.53    1.01   0
  -6   2  -6   19.40    1.10   0
  -5  -3  -6    0.43    0.94   0
  -4   2  -6    1.75    0.81   0
  -4   6  -5    7.14    1.00   0
  -4   8  -4    5.26    1.02   0
  -3   9  -2    2.69    0.60   0
  -2   8  -2 1581.39    3.70   0
  -1  -1  -5  245.27    1.98   0
  -1   1  -5  241.93    1.99   0
   0   3  -3   13.25    0.44   0
  -6  -3  -6    1.28    0.86   0
  -5   3  -6    0.94    0.92   0
  -4  -3  -6    1.71    0.81   0
  -3  -1  -6    4.98    0.79   0
  -3   0  -6   81.32    1.41   0
  -3   1  -6    5.78    0.80   0
  -1   2  -5   79.49    1.27   0
  -1   6  -3    5.67    0.42   0
   0   0  -4    4.00    0.53   0
   0   1  -4  122.68    1.23   0
  -6   7  -5    0.60    1.07   0
  -6   9  -4   -0.61    1.27   0
  -5  -4  -6   21.75    1.07   0
  -5   4  -6   27.79    1.21   0
  -3   2  -6   26.45    1.05   0
  -3   6  -5    0.88    0.87   0
  -2   5  -5  157.94    1.89   0
   0   2  -4    2.78    0.50   0
   0   4  -2  507.33    1.52   0
  -6   4  -6    4.29    0.96   0
  -5   9  -4    9.72    1.22   0
  -4  -4  -6    1.41    0.86   0
  -4   4  -6    2.08    0.89   0
  -4   7  -5   94.11    1.84   0
  -3  -3  -6    3.35    0.81   0
  -3   3  -6    3.76    0.84   0
  -3   8  -4   40.25    1.25   0
  -3   9  -3   28.38    1.02   0
  -2   0  -6   13.99    0.84   0
  -2   7  -4    1.21    0.67   0
   0   4  -3   30.90    0.55   0
  -5   5  -6    0.54    0.92   0
  -3   4  -6    3.78    0.86   0
  -2  -1  -6    0.97    0.74   0
  -2   1  -6    0.37    0.70   0
  -2   2  -6  110.20    1.64   0
  -1   7  -2   56.52    0.66   0
  -6   5  -6    8.49    1.04   0
  -5   8  -5   -0.04    1.26   0
  -4   5  -6   16.66    1.13   0
  -4   9  -4   15.38    1.22   0
  -3  -4  -6    4.52    0.88   0
  -2   3  -6    4.55    0.82   0
  -2   6  -5   17.81    1.01   0
  -1  -4  -5   11.97    0.76   0
  -1   6  -4   20.64    0.71   0
  -6   8  -5   19.85    1.33   0
  -3   5  -6    2.84    0.90   0
  -2  -3  -6    5.77    0.85   0
   0   4  -4  717.50    2.66   0
   0   5  -3  107.11    0.91   0
   0   5  -2   26.06    0.43   0
  -5   6  -6    0.74    0.99   0
  -4   6  -6    0.15    0.94   0
  -2   8  -4   59.54    1.26   0
  -1   0  -6    5.58    0.79   0
  -1   5  -5   69.07    1.26   0
   0  -4  -4  698.41    2.43   0
   0  -1  -5  180.84    1.70   0
   0   2  -5   94.59    1.34   0
  -3   9  -4   -0.53    0.91   0
  -2  -4  -6  116.65    1.67   0
  -2   7  -5    2.05    0.87   0
  -1  -1  -6    5.31    0.80   0
  -1   2  -6    1.01    0.78   0
  -5  -1  -7    4.43    0.89   0
  -5   2  -7    4.24    0.90   0
  -4   2  -7    1.45    0.87   0
  -3   6  -6   28.68    1.29   0
  -2   5  -6    1.00    0.90   0
  -2   9  -3    8.94    0.70   0
  -1   3  -6    3.56    0.82   0
  -1   7  -4    0.07    0.53   0
   0  -5  -3   96.43    0.76   0
   0   5  -4   72.37    0.92   0
  -6   9  -5   -0.19    1.18   0
  -5  -2  -7    3.21    0.92   0
  -5   3  -7    1.72    0.87   0
  -5   7  -6    1.15    1.05   0
  -5   9  -5   54.62    1.68   0
  -4  -2  -7    0.98    0.86   0
  -4   3  -7   23.36    1.14   0
  -4   7  -6   14.33    1.22   0
  -4  10  -4    4.68    1.17   0
  -3   2  -7    4.78    0.89   0
  -1  -3  -6    3.87    0.83   0
   0   4  -5    6.57    0.64   0
   0   6  -3   33.63    0.60   0
   1   1  -3  706.13    2.12   0
  -4  -3  -7   17.10    1.16   0
  -3  -2  -7    4.82    0.89   0
  -3   3  -7    3.20    0.89   0
  -2   6  -6    1.06    0.89   0
  -1   4  -6   49.55    1.27   0
  -1   8  -3   17.29    0.59   0
  -1   8  -2   52.00    0.71   0
   1  -1  -3  644.69    1.97   0
   1   0  -4   40.89    0.74   0
   1   1  -4  128.13    1.16   0
  -3  -3  -7    1.19    1.00   0
  -3   7  -6    1.14    1.05   0
  -2  -1  -7    0.55    0.84   0
  -2   2  -7    9.72    0.92   0
  -2   9  -4   21.92    1.01   0
   0   0  -6  114.30    1.65   0
   1  -1  -4  125.88    1.12   0
  -5   8  -6    1.20    1.07   0
  -4   5  -7   28.32    1.23   0
  -3  10  -4   26.11    1.26   0
  -2  -2  -7    8.39    0.94   0
  -2   3  -7    0.12    0.83   0
  -1  -4  -6   44.97    1.22   0
  -1   5  -6    9.17    0.93   0
  -1   7  -5  300.72    2.42   0
   0  -4  -5    6.82    0.62   0
   0  -1  -6    0.10    0.79   0
   0   5  -5    3.99    0.59   0
   1  -2  -3   11.51    0.38   0
   1   1  -2  449.47    1.40   0
   1   3  -4   28.42    0.66   0
  -3   5  -7    0.85    0.92   0
  -2   7  -6    0.09    0.96   0
   1  -2  -4  150.64    1.17   0
   1   1  -5    1.75    0.58   0
   1   2  -2  214.60    1.00   0
  -2  -3  -7    0.35    0.89   0
  -1  -1  -7    1.43    0.85   0
  -1   1  -7    1.43    0.83   0
  -1   6  -6    8.82    0.94   0
   0   4  -6    8.33    0.87   0
  -4   6  -7    3.36    0.98   0
  -4  10  -5    4.56    1.24   0
  -2   5  -7    1.66    0.94   0
  -2   9  -5    8.15    1.07   0
  -1  -2  -7    5.43    1.06   0
  -1   3  -7  158.60    2.05   0
   0  -3  -6    5.98    0.83   0
   0   7  -4    2.03    0.47   0
   1  -3  -3    7.06    0.39   0
   1   3  -2   23.82    0.40   0
  -2  -4  -7    1.03    0.95   0
  -1   9  -3  125.61    1.25   0
   0  -5  -5    3.06    0.57   0
   0   5  -6   60.26    1.32   0
   1  -2  -5    4.83    0.57   0
   1   4  -5   -0.09    0.48   0
  -4   9  -6    5.62    1.21   0
  -2   6  -7    2.27    0.98   0
  -2   8  -6    6.25    1.07   0
  -2  10  -4   28.93    1.15   0
  -1   9  -4   28.59    0.91   0
   0   7  -2    2.12    0.31   0
   1   5  -4  119.77    1.11   0
   1   5  -3   87.51    0.85   0
  -3   1  -8   -0.24    0.81   0
  -3   2  -8    6.53    0.89   0
  -3   7  -7   10.70    1.13   0
  -3   9  -6    0.91    1.15   0
  -1   5  -7  101.09    1.79   0
   0  -4  -6    7.87    0.84   0
   0   2  -7   52.06    1.38   0
   1  -3  -5   31.65    0.76   0
   1  -1  -6    7.79    0.79   0
   1   0  -6  150.53    1.80   0
   1   4  -2  476.77    1.55   0
  -3  -1  -8    0.63    0.82   0
  -3   3  -8    0.47    0.82   0
  -2   1  -8   -0.22    0.81   0
  -2   2  -8    5.75    0.87   0
   0  -1  -7  322.02    2.74   0
   0   8  -4    0.77    0.51   0
   0   8  -3    2.71    0.42   0
   1  -4  -4  702.74    2.33   0
  -2  -1  -8   -0.39    0.87   0
  -2   3  -8    1.49    0.85   0
  -2   7  -7    9.22    1.11   0
  -2   9  -6   26.31    1.35   0
  -1  -4  -7   13.77    1.11   0
  -1   6  -7    0.44    0.94   0
  -1   8  -6    1.88    1.00   0
  -1   9  -5   22.60    1.06   0
   0  -2  -7   49.82    1.34   0
   1   4  -6  506.80    3.06   0
   1   6  -4   84.33    0.97   0
  -2  -2  -8    5.03    1.04   0
  -2   4  -8   -0.09    0.86   0
  -1   1  -8    0.70    0.80   0
   0   7  -6   36.23    1.16   0
   1  -4  -5   -0.14    0.48   0
   1  -4  -3   78.45    0.72   0
   1   6  -3   39.65    0.64   0
  -1  -1  -8    0.89    0.99   0
  -1   0  -8   32.79    1.20   0
  -1   3  -8    4.27    0.91   0
   0  -3  -7    7.53    0.99   0
   0   5  -7   22.33    1.11   0
   1   5  -6   37.44    1.05   0
   1   5  -2    6.35    0.31   0
   2   0  -4   32.67    0.69   0
   2   1  -5  185.11    1.56   0
   2   1  -4  365.67    1.86   0
   2   2  -4    3.44    0.49   0
  -2   5  -8    1.97    0.89   0
  -2   8  -7    6.74    1.15   0
  -1   4  -8   73.27    1.56   0
   0   8  -2  786.28    2.21   0
   1   3  -7   38.29    1.28   0
   1   7  -4   17.05    0.59   0
  -1  -2  -8    6.70    0.97   0
  -1   9  -6    0.34    1.00   0
  -1  10  -5   -0.43    1.03   0
   0   6  -7   -0.61    0.89   0
   0   8  -6   74.26    1.47   0
   0   9  -4   -0.52    0.56   0
   1  -1  -7   36.53    1.28   0
   2  -1  -5  197.85    1.55   0
   2   1  -3  972.04    2.58   0
  -2   6  -8   28.09    1.22   0
  -1   5  -8   20.48    1.13   0
  -1   8  -7    0.69    1.18   0
   0   0  -8    5.82    0.95   0
   0   2  -8    2.88    0.90   0
   0   3  -8   11.76    1.01   0
   0   9  -3    2.44    0.46   0
   1  -5  -4  105.04    0.96   0
   2  -2  -4    3.84    0.52   0
   2   0  -6  102.18    1.43   0
   2   1  -6    1.08    0.67   0
   2   3  -6   10.88    0.79   0
   2   4  -5   12.82    0.60   0
  -2   9  -7   -0.56    1.25   0
  -1  -3  -8    2.84    0.98   0
   0  -1  -8    6.78    0.99   0
   0   4  -8    1.99    0.92   0
   0   7  -7  154.21    2.13   0
   1  -5  -5   11.42    0.59   0
   1   5  -7    0.48    0.89   0
   2  -1  -6    0.98    0.63   0
   2   3  -3    9.09    0.43   0
  -1   6  -8    3.49    0.97   0
   0  -2  -8    3.80    1.00   0
   1  -3  -7   35.02    1.19   0
   1   8  -4  106.88    1.16   0
   2  -1  -3 1150.70    2.73   0
   2   4  -3   17.26    0.51   0
   2   5  -4    2.70    0.43   0
  -1  10  -6    3.67    1.12   0
   0   5  -8    1.66    0.93   0
   0   9  -6   48.03    1.36   0
   1   6  -7    5.32    0.91   0
   2   1  -7   68.47    1.50   0
  -1   9  -7   37.16    1.46   0
   0   8  -7    6.66    1.05   0
   1   0  -8    2.51    0.99   0
   1   1  -8    4.46    0.96   0
   1   3  -8    9.38    1.03   0
   2  -3  -4  126.14    1.08   0
   2   6  -5  133.69    1.35   0
   2   6  -4   78.15    0.97   0
   0  10  -5    8.79    0.90   0
   1  -1  -8    6.63    1.06   0
   1   4  -8   76.79    1.62   0
   2  -2  -3   19.51    0.46   0
   2  -1  -7   85.65    1.57   0
   2   5  -3  128.91    1.05   0
   2   6  -6  249.85    2.01   0
   1  -2  -8   38.05    1.47   0
   1   5  -8    4.36    0.96   0
   2  -2  -7    7.31    1.06   0
   0   2  -9    5.98    0.84   0
   0   9  -7    0.32    1.00   0
   0  10  -6    3.19    1.01   0
   1   7  -2  169.04    1.02   0
   1   9  -4    6.03    0.58   0
   2   7  -4   82.27    1.01   0
   3   1  -6   25.09    0.89   0
   3   2  -6   29.18    0.93   0
  -1  10  -7   10.64    1.24   0
   0   3  -9    2.52    0.83   0
   1   6  -8   39.59    1.34   0
   1   8  -7    1.96    0.92   0
   1   9  -6    1.12    0.82   0
   2  -4  -6  122.59    1.47   0
   2  -4  -4  182.48    1.29   0
   2   1  -8   28.86    1.30   0
   2   1  -2  120.79    0.81   0
   2   2  -8  164.13    2.24   0
   2   2  -2   30.18    0.47   0
   2   6  -7    8.07    0.84   0
   2   6  -3  381.01    1.76   0
   2   7  -6    0.57    0.62   0
   3   0  -6  172.06    1.73   0
   3   1  -4    6.62    0.54   0
   3   2  -4    8.10    0.55   0
   3   4  -5  125.90    1.35   0
   0  -1  -9   11.21    0.99   0
   1  -3  -8    8.27    1.11   0
   2  -3  -7    7.30    0.88   0
   2   0  -8  252.49    2.66   0
   2   3  -8    0.96    0.94   0
   2   3  -2  825.27    2.12   0
   2   4  -8    9.49    1.05   0
   3  -1  -6   25.30    0.86   0
   3  -1  -5   92.06    1.14   0
   3   0  -4  740.95    2.70   0
   3   3  -4  241.45    1.62   0
   0   8  -8    3.31    1.00   0
   1   2  -9    6.40    0.90   0
   1   7  -8    3.52    0.96   0
   1   9  -3  237.00    1.52   0
   2   0  -2  828.56    2.01   0
   3   3  -7  128.53    1.82   0
   3   4  -4  303.13    1.81   0
   3   5  -6   76.06    1.23   0
   0  10  -7    5.94    1.12   0
   1   1  -9    1.64    0.85   0
   1   3  -9   11.03    0.97   0
   2   4  -2    6.30    0.32   0
   2   5  -8    2.61    0.96   0
   2   8  -6   78.21    1.28   0
   2   8  -4   51.26    0.88   0
   3  -2  -5   13.40    0.64   0
   3  -1  -4    9.28    0.55   0
   1   4  -9    6.15    0.90   0
   1  10  -6  138.37    1.84   0
   2  -4  -7   53.33    1.28   0
   2   6  -8   26.29    1.19   0
   3  -1  -7   48.56    1.24   0
   3   6  -6   20.09    0.82   0
   1   8  -8   57.64    1.52   0
   1   8  -2   73.83    0.73   0
   2   8  -7   27.44    1.10   0
   3  -2  -4    5.40    0.49   0
   1  -2  -9    7.25    1.06   0
   2  -3  -8    0.87    1.05   0
   2   1  -9    2.57    0.95   0
   2   2  -9    1.16    0.94   0
   2   3  -9    0.93    0.89   0
   2   5  -2   60.70    0.67   0
   2   7  -8    0.42    0.87   0
   2   9  -6  123.63    1.60   0
   2   9  -5  162.11    1.62   0
   3  -3  -6   33.61    0.91   0
   3  -3  -5  127.92    1.30   0
   3   0  -8    1.92    1.05   0
   3   1  -8    8.13    1.10   0
   3   1  -3  105.83    0.99   0
   3   2  -8    2.13    0.80   0
   3   3  -8    0.24    0.98   0
   3   3  -3 1363.47    3.36   0
   3   6  -7    3.90    0.75   0
   3   6  -4  204.29    1.55   0
   3   7  -6    0.66    0.63   0
   1  10  -7   37.56    1.49   0
   2   4  -9    0.54    0.90   0
   3   4  -8   51.32    1.33   0
   4   2  -6   43.48    1.08   0
   1   9  -8    5.12    1.10   0
   2  -1  -9    2.52    0.99   0
   2   8  -3   52.07    0.78   0
   2   9  -4    0.61    0.54   0
   3  -1  -8    7.25    1.08   0
   3   5  -8   47.77    1.40   0
   3   7  -7  129.58    1.69   0
   4   0  -6    9.99    0.77   0
   1  11  -6   19.90    1.19   0
   2   8  -8   37.60    1.33   0
   3  -1  -3   61.05    0.77   0
   3   5  -3   45.00    0.75   0
   3   6  -8   17.58    1.09   0
   4   4  -5  107.22    1.35   0
   2  -2  -9    1.21    1.05   0
   2   6  -9    0.50    0.91   0
   2  10  -6    1.27    0.87   0
   4   5  -5    5.70    0.63   0
   3   1  -9   45.50    1.48   0
   3   2  -9    2.89    1.00   0
   3   3  -9    2.30    1.02   0
   3   4  -9   25.52    1.22   0
   3   8  -7    0.96    0.73   0
   4  -1  -7  219.02    2.16   0
   4  -1  -5  194.69    1.70   0
   4   2  -8   35.07    1.37   0
   4   3  -8   12.94    1.11   0
   4   5  -7    2.17    0.77   0
   2   9  -8   11.23    1.14   0
   2  10  -7   22.21    1.17   0
   3   6  -3   39.58    0.73   0
   3   8  -4    1.63    0.54   0
   3   9  -6    2.85    0.74   0
   4   0  -8   40.16    1.36   0
   4   1  -8   39.41    1.38   0
   4   4  -8  110.94    1.90   0
   4   4  -4   28.48    0.76   0
   4   6  -7   13.90    0.86   0
   4   6  -5    0.04    0.58   0
   2   9  -3   64.63    0.89   0
   3  -2  -3  169.66    1.20   0
   3  -1  -9   45.25    1.49   0
   3   9  -5  172.13    1.71   0
   4  -2  -7  230.60    2.18   0
   4  -2  -5    5.82    0.62   0
   4   0  -4  705.59    2.88   0
   4   5  -8    3.76    0.97   0
   4   7  -6   21.71    0.88   0
   3   6  -9    1.63    0.96   0
   3   8  -8    9.47    1.02   0
   4   5  -4    1.81    0.53   0
   2  11  -6    1.20    0.98   0
   3  -2  -9    3.94    1.15   0
   4  -3  -6    0.87    0.69   0
   4  -1  -4  313.39    1.96   0
   3  10  -6   16.75    0.99   0
   4  -3  -7    3.68    0.85   0
   4  -3  -5   10.99    0.79   0
   4   2  -9    6.66    1.13   0
   4   3  -9   45.84    1.56   0
   4   4  -9    3.67    1.08   0
   4   6  -4   81.45    1.14   0
   4   8  -6   30.90    0.99   0
   5   4  -6  135.11    1.75   0
   2  -5  -3   88.68    0.81   0
   3   2  -2    0.06    0.32   0
   3   3  -2  202.93    1.23   0
   3  10  -7    1.77    1.05   0
   3  10  -5   61.12    1.23   0
   4   8  -7    2.75    0.74   0
   4   8  -5   14.49    0.80   0
   5   0  -6    5.73    0.81   0
   5   2  -5    0.19    0.64   0
   5   5  -6    0.65    0.73   0
   3  -3  -3 1310.50    3.21   0
   3   1  -2  340.78    1.53   0
   3   4  -2  348.60    1.63   0
   4  -1  -9    6.91    1.16   0
   4   3  -3   72.52    1.00   0
   5   2  -8   63.49    1.61   0
   5   4  -8   16.81    1.13   0
   5   4  -5   65.33    1.22   0
   4  -4  -7    0.27    0.83   0
   4   1  -3  102.19    1.13   0
   4   4  -3  259.67    1.72   0
   4   6  -9    0.15    0.93   0
   4   8  -8   10.22    0.98   0
   4   9  -6    2.69    0.82   0
   5   0  -8  184.93    2.35   0
   5   5  -8   -0.06    0.91   0
   5   5  -5   19.55    0.87   0
   5   6  -7    4.23    0.80   0
   5   6  -6   13.58    0.88   0
   3   0  -2   65.38    0.73   0
   3   5  -2   34.34    0.63   0
   4  -2  -9    8.09    1.38   0
   5  -1  -8   17.36    1.15   0
   5   6  -8   10.29    0.95   0
   3  -5  -4    8.96    0.62   0
   3  10  -4   -0.43    0.65   0
   3  11  -6   12.63    1.07   0
   4  -4  -5  120.74    1.42   0
   4   9  -5    1.34    0.74   0
   5  -2  -7    2.90    0.86   0
   5   3  -9   40.05    1.56   0
   5   7  -7    7.68    0.83   0
   5   7  -6   77.58    1.43   0
   5   2  -4    4.85    0.65   0
   5   4  -9    5.27    1.11   0
   3  -1  -2  252.59    1.35   0
   4  -1  -3  104.81    1.15   0
   4  10  -7   -0.16    0.91   0
   4  10  -6    5.63    0.91   0
   5  -3  -7   23.66    1.25   0
   5  -2  -5   -0.05    0.69   0
   5   8  -7   14.52    0.96   0
   5  -1  -9    5.99    1.25   0
   5   6  -9    0.35    0.97   0
   6   1  -6    4.71    0.90   0
   6   3  -6    3.11    0.88   0
   6   4  -6    2.77    0.91   0
   3  -4  -3  108.86    1.03   0
   4   9  -4    1.99    0.67   0
   4  10  -5    8.97    0.91   0
   5  -3  -8    5.55    1.10   0
   6   0  -6   77.72    1.56   0
   6   4  -8    4.41    0.78   0
   6   5  -8    4.96    0.98   0
   6   5  -6   63.44    1.45   0
   5  -2  -9   11.46    1.49   0
   6  -1  -7   19.37    1.18   0
   6   0  -8  112.16    2.01   0
   6   2  -5   11.01    0.91   0
   6   6  -7    3.79    0.87   0
   4  -2  -3  358.06    2.02   0
   4  11  -6   11.03    1.25   0
   5  -4  -7    0.52    0.95   0
   6  -1  -8   33.27    1.41   0
   6  -1  -6    5.24    0.96   0
   6   3  -9   12.18    1.31   0
   6   4  -9    0.72    1.12   0
   6   6  -8    1.32    0.87   0
   2   6  -1    7.12    0.37   0
   3  -2  -2    0.22    0.32   0
   6  -2  -7    9.32    1.05   0
   6   7  -8    0.02    0.82   0
   6   7  -6    9.36    0.96   0
   4   8  -3   71.58    1.11   0
   5   9  -5   93.18    1.58   0
   5  10  -7   21.23    1.33   0
   6   6  -5   59.40    1.40   0
   4   2  -2   25.84    0.70   0
   4   3  -2  135.46    1.26   0
   5   1  -3   16.64    0.79   0
   5   4  -3   13.52    0.73   0
   5  10  -6   77.93    1.61   0
   6  -1  -9   15.49    1.33   0
   6  -1  -5   16.30    1.01   0
   6   8  -7   20.94    1.11   0
   7   3  -7    4.45    1.06   0
   4   1  -2    5.63    0.54   0
   4   4  -2  165.74    1.33   0
   5   5  -3    5.04    0.64   0
   6  -3  -7   45.71    1.45   0
   6   2  -4    0.64    0.73   0
   6   3  -4   97.83    1.56   0
   6   7  -5  191.45    2.22   0
   6   8  -8    0.20    0.85   0
   7   1  -7   13.14    1.22   0
   7   3  -8   -0.07    1.10   0
   7   5  -7   48.35    1.50   0
   4   5  -2   82.96    1.06   0
   6  -3  -8   26.62    1.56   0
   6   9  -7    0.31    1.09   0
   7   1  -8    0.69    1.07   0
   7   1  -6   16.73    1.21   0
   7   4  -6   59.36    1.65   0
   7   5  -8    1.65    1.03   0
   4   0  -2 1548.02    4.00   0
   4   9  -3  135.23    1.53   0
   5   6  -3    1.22    0.63   0
   6  -2  -9    1.40    1.31   0
   6   9  -6    6.98    1.02   0
   7   0  -8   -0.68    1.16   0
   7   2  -9    7.99    1.31   0
   7   3  -9   25.41    1.51   0
   7   4  -9   -0.39    1.13   0
   7   6  -8   -0.10    0.96   0
   7   6  -7   27.46    1.30   0
   6   0  -4    0.48    0.56   0
  -3   4   2  305.46    1.50   0
  -3   6   6   21.27    1.09   0
  -2   6   0   17.60    0.46   0
  -2   6   7    7.87    1.16   0
  -2   9   0   73.68    0.96   0
  -2   9   7    3.84    1.03   0
  -1   6  -1    3.87    0.26   0
  -1  13   0   65.15    1.24   0
   0  16   1   15.96    1.25   0
  -3   3   4  223.74    1.43   0
  -3  11   5  184.60    2.13   0
  -2   7   0  710.39    2.31   0
  -2   8   7   27.83    1.27   0
  -2  12   6   -0.05    0.94   0
  -2  14   3   54.24    1.32   0
  -2  14   4    4.20    0.82   0
  -1   7  -1  200.07    1.07   0
  -1   8  -1  602.16    1.99   0
  -1  15   5    4.29    0.95   0
  -3   4   5  146.00    1.43   0
  -3  11   3    8.11    0.81   0
  -2  13   5    0.99    0.83   0
  -1  11   7    1.04    0.96   0
  -1  15   2   10.69    1.01   0
  -3   4   3  121.51    1.08   0
  -3   5   5  136.30    1.50   0
  -2   3   1 3142.97    3.75   0
  -2  11   6    0.47    1.00   0
  -2  13   2   18.40    0.96   0
  -1  12   0   13.53    0.89   0
  -1  13   6    0.80    0.95   0
  -1  14   1   17.79    1.02   0
  -1  15   4    1.89    0.86   0
  -3   6   5    4.00    0.73   0
  -3   8   5   88.72    1.50   0
  -3   9   5  169.65    1.99   0
  -3  10   4   -0.83    0.73   0
  -2   1   4  313.51    1.43   0
  -2  11   1   12.80    0.77   0
  -2  13   3   38.90    1.14   0
  -2  13   4   10.81    0.91   0
  -1  10   7   32.78    1.27   0
  -1  15   3   12.64    1.00   0
   0  14   0  165.82    1.91   0
   0  16   4    2.82    0.95   0
   1  17   2   50.73    1.43   0
  -3   5   3   69.70    0.93   0
  -3   5   4    8.32    0.56   0
  -2   2   5   36.43    0.74   0
  -2  10   6    0.43    1.01   0
  -2  12   2   76.68    1.35   0
  -2  12   5   12.57    0.98   0
  -1   9   7   10.13    1.05   0
   0  11   7    1.32    1.04   0
   0  15   1   29.51    1.28   0
   0  16   3    0.59    0.92   0
  -3   7   3  149.68    1.45   0
  -3   7   4    2.27    0.58   0
  -3   8   4    2.22    0.67   0
  -2   9   6  123.45    1.98   0
  -1   7   7    0.99    0.95   0
  -1   8   7    1.78    0.97   0
  -1  12   6   79.75    1.72   0
  -1  13   1    4.44    0.93   0
  -1  14   2   11.42    0.97   0
   1  16   1   58.55    1.54   0
  -2   2   2   29.45    0.43   0
  -2   4   1   35.27    0.50   0
  -2  11   5   46.30    1.29   0
  -2  12   3    9.95    0.85   0
  -2  12   4   94.85    1.53   0
  -1  11   0   97.19    1.23   0
  -1  13   5   14.16    1.04   0
  -1  14   3   10.29    0.89   0
  -1  14   4   36.49    1.20   0
   0  10   7    5.89    0.95   0
   0  13   6   38.44    1.38   0
  -2   7   6    0.07    0.93   0
  -1  11   6   19.28    1.21   0
   0  15   4   -0.34    0.90   0
  -2   5   1  201.01    1.16   0
   0   9   7    0.61    0.91   0
   0  14   5    3.69    1.00   0
   0  15   3   25.89    1.12   0
   1  16   2    9.18    1.03   0
  -2   2   3   21.13    0.44   0
  -2   7   1  532.18    2.18   0
  -2   9   5  142.42    1.86   0
  -2  10   2   32.00    0.90   0
  -1  10   6  155.09    2.17   0
  -1  12   5   64.18    1.49   0
  -1  13   2   35.78    1.11   0
  -1  13   4   21.63    1.02   0
   0   8   7    4.67    0.94   0
   0  12   6    2.64    1.03   0
   1  10   7   10.71    0.98   0
   1  13   6   12.27    1.10   0
  -2   3   2  853.40    2.15   0
  -2   8   5   62.87    1.34   0
  -2  10   4    4.93    0.74   0
  -1   3   6  160.65    1.67   0
  -1  13   3    1.64    0.76   0
   0   7   7  126.86    1.77   0
  -2   6   5  144.74    1.70   0
  -2   9   2   -0.24    0.53   0
  -1   0   4   56.80    0.61   0
  -1   9   6    0.14    0.97   0
   0  11   6    0.25    1.00   0
   0  14   4    4.54    0.90   0
   1   9   7   30.37    1.16   0
   1  14   0    3.42    0.86   0
   1  14   5    0.81    1.03   0
   1  15   1   15.77    1.06   0
   1  15   4   22.03    1.24   0
   2  16   1   30.94    1.26   0
  -2   9   3   63.23    1.10   0
  -1   4   6  513.52    2.96   0
  -1  11   1   10.99    0.73   0
  -1  12   2   87.04    1.39   0
   0  12   0  304.68    2.15   0
   0  14   3    2.50    0.83   0
   1  12   6   -0.12    0.95   0
   2  16   2   25.14    1.25   0
   2  16   3    1.60    1.03   0
  -2   3   3    7.83    0.40   0
  -2   4   2    7.29    0.37   0
  -2   8   4   51.79    1.07   0
  -1   6   6   24.31    1.12   0
  -1   7   6   64.03    1.46   0
  -1  12   3    6.70    0.77   0
   0   9  -1  140.82    1.10   0
   1  15   3    0.47    0.90   0
  -2   4   4  165.75    1.34   0
  -2   5   4    2.13    0.50   0
  -2   6   2   -0.03    0.45   0
  -1   7   0   18.18    0.55   0
  -1  10   5   37.66    1.22   0
   0  12   5    1.82    0.96   0
   0  13   4    4.83    0.91   0
   1  13   5   -0.12    0.98   0
   2  15   4    3.29    1.10   0
  -2   4   3   20.90    0.56   0
  -2   7   3  194.44    1.56   0
  -1   2   5    4.99    0.53   0
  -1   5   0  283.92    1.17   0
  -1   6   0  109.47    0.84   0
  -1  10   1   51.78    0.96   0
  -1  11   2    0.52    0.61   0
   0  13   2    4.16    0.78   0
   1  11   6   19.82    1.17   0
   1  14   1    0.93    0.95   0
   1  14   4    3.86    0.99   0
   2  12   6    9.09    1.01   0
   3  16   1    0.68    1.06   0
  -2   5   3  107.13    1.06   0
  -2   6   3  340.94    1.91   0
  -1   9   5   56.11    1.32   0
   0   8  -1   81.75    0.79   0
   0  11   5   18.83    1.13   0
   0  13   3    0.95    0.74   0
   1  13   0   63.44    1.23   0
   2  15   1   35.83    1.26   0
   2  15   3    3.01    1.00   0
   3  16   2    2.59    1.09   0
  -1   8   5   14.92    0.96   0
  -1   9   1   86.24    1.07   0
  -1  10   4   25.86    0.94   0
   0   8   6   86.11    1.62   0
   1  10   6    3.16    0.99   0
   1  14   2    2.63    0.84   0
   1  14   3   47.29    1.34   0
   2  13   5    9.74    1.11   0
  -1   1   4  125.31    0.91   0
  -1  10   3  122.40    1.45   0
   0   7  -1  228.48    1.15   0
   0   7   6   36.33    1.20   0
   1  11  -1    9.25    0.61   0
   1  12   5    0.65    0.96   0
   1  13   4    8.39    1.03   0
   2  14   0    0.55    0.85   0
   4  16   1    2.96    1.13   0
   0   4   6    8.75    0.82   0
   0  10   5    9.17    0.97   0
   0  12   2   15.76    0.83   0
   0  12   3   11.55    0.83   0
   3  15   3   37.73    1.47   0
  -1   8   1   96.70    1.04   0
  -1   9   2   24.85    0.73   0
   0  10   0   36.95    0.80   0
   0  11   4   92.39    1.55   0
   3  13   5    0.15    0.99   0
  -1   8   4  110.05    1.41   0
   0   6  -1   74.90    0.60   0
   0   9   5   46.68    1.29   0
   0  11   1   67.93    1.12   0
   1   8   6    2.72    0.90   0
   1  12   0   12.66    0.77   0
   1  13   2    0.36    0.75   0
   1  13   3   37.52    1.16   0
   2  12   5    2.71    1.03   0
   2  14   1   72.19    1.45   0
   4  15   3   20.39    1.37   0
  -1   2   4  158.18    1.13   0
  -1   7   1   77.73    0.89   0
  -1   7   4   18.26    0.75   0
   0  11   3   25.31    0.90   0
   2  12  -1    0.31    0.74   0
   2  14   2    5.67    0.94   0
   3  10   6   28.16    1.16   0
   4  14   4    0.51    1.12   0
  -1   6   1  146.98    1.06   0
  -1   8   3  236.76    1.74   0
   0   8   5    3.31    0.84   0
   0  10   4   36.56    1.07   0
   0  11   2    7.28    0.66   0
   1   7   6   11.69    0.93   0
   1  10   5   -0.42    0.90   0
   2  13   0    0.98    0.76   0
   3  12   5    0.29    1.00   0
   4  10   6    9.09    0.96   0
  -1   4   4  737.05    2.80   0
  -1   5   4  119.41    1.28   0
   0  10   1  170.08    1.50   0
   1   5   6   11.65    0.96   0
   1   6   6    9.27    0.85   0
   2   8   6    6.87    1.04   0
   3  14   0    6.50    0.95   0
   4  12   5    0.99    0.92   0
   4  15   1   23.50    1.30   0
  -1   4   1  364.63    1.33   0
  -1   5   1   21.65    0.40   0
  -1   7   2  165.45    1.31   0
  -1   7   3    0.59    0.47   0
   0  10   3   24.42    0.84   0
   1  11   0   91.07    1.19   0
   1  11   4    2.87    0.90   0
   1  12   2   -0.29    0.67   0
   2  13   3   69.51    1.58   0
   3   9   6    0.55    0.84   0
  -1   2   2  164.77    0.83   0
  -1   2   3   15.28    0.38   0
  -1   6   3   38.42    0.76   0
   0   2   5  108.16    1.20   0
   0   6   5    3.14    0.77   0
   0  10   2    1.44    0.54   0
   1   9   5   23.80    1.12   0
   2   7   6    0.71    0.82   0
   2  12   4    0.07    0.73   0
   2  13   2   62.59    1.38   0
   3  11   5    3.79    0.97   0
   3  14   1   11.48    1.04   0
   3  14   2   10.42    1.10   0
   4   9   6    5.96    0.91   0
   4  14   3   51.28    1.68   0
   5  15   1    3.59    1.14   0
  -1   3   3    7.11    0.39   0
  -1   5   3   87.14    0.97   0
   0   3   5  152.25    1.50   0
   0   8   0   92.63    0.94   0
   2  10   5   37.70    1.31   0
   3   8   6   57.02    1.34   0
   5  13   4   -0.00    0.97   0
   5  14   3    2.71    1.33   0
  -1   3   2   19.97    0.39   0
  -1   4   2  442.68    1.64   0
  -1   4   3   79.58    0.86   0
  -1   5   2    5.86    0.41   0
   0   8   4    0.81    0.63   0
   0   9   1  143.38    1.29   0
   1  11   3  262.80    2.24   0
   2   6   6   -0.16    0.77   0
   2  12   0   20.13    0.84   0
   3  12   4    0.39    0.99   0
   4   8   6    2.15    0.85   0
   4  11   5   17.85    1.15   0
   4  14   0   17.55    1.12   0
   0   0   4    3.99    0.38   0
   1  11   1  229.62    1.83   0
   2   5   6    0.54    0.74   0
   2  11   4    2.78    0.98   0
   2  12   3    8.75    0.95   0
   3   7   6    0.16    0.81   0
   3  13   0    0.72    0.79   0
   4  14   1   -0.39    0.94   0
   4  14   2    6.89    1.14   0
   1   7   5  302.82    2.46   0
   2   9   5    6.00    0.92   0
   3  10   5    6.89    0.98   0
   3  13   2   30.22    1.22   0
   4  12   4   19.58    1.25   0
   0   8   1   90.82    0.99   0
   2  12   1    4.01    0.70   0
   2  12   2  115.96    1.61   0
   3  12  -1   12.92    0.79   0
   4  10   5    4.30    0.97   0
   4  13   3    0.93    1.08   0
   5  12   4    1.60    0.98   0
   5  14   2    8.52    1.26   0
   6  14   2   -0.23    1.34   0
   0   6   4  358.08    2.24   0
   0   8   2  645.16    2.54   0
   2   8   5   12.74    0.94   0
   2  10   4   31.04    1.21   0
   3   5   6    2.54    0.77   0
   3   9   5   26.03    1.13   0
   3  12   3   64.34    1.59   0
   5  10   5    0.50    0.88   0
   5  13   3    5.90    1.20   0
   5  14   0    3.68    1.08   0
   5  14   1    0.93    1.11   0
   0   1   4  120.18    0.99   0
   0   5   4   81.37    1.13   0
   0   6   0   85.64    0.73   0
   0   7   3   79.59    1.02   0
   1   5   5   62.62    1.17   0
   1  10   1    0.36    0.50   0
   1  10   2    3.87    0.56   0
   2  11   3   51.94    1.29   0
   4  13   2    1.14    1.00   0
   6  13   3    0.51    1.04   0
   1   8   4    2.87    0.70   0
   2   7   5    1.86    0.76   0
   2  10  -1   43.09    0.80   0
   4   9   5    7.59    0.96   0
   4  11   4    2.16    1.03   0
   6  14   0    4.00    1.18   0
   0   7   1  103.90    0.92   0
   0   7   2    2.75    0.45   0
   1   3   5   19.94    0.75   0
   2   9   4   21.09    1.02   0
   2  11   1   18.70    0.78   0
   2  11   2  138.64    1.64   0
   3   8   5    0.78    0.80   0
   3  12   0   45.99    1.09   0
   3  12   2  336.38    2.81   0
   4  12   3    4.63    1.10   0
   4  13   1    4.51    1.00   0
   5  11   4   12.85    1.10   0
   5  13   2   19.26    1.33   0
   6   9   5    0.37    0.84   0
   7  14   0    4.97    1.28   0
   0   6   3   38.79    0.75   0
   1   7   4    0.57    0.63   0
   3  12   1   26.80    1.01   0
   1   7  -1   95.37    0.80   0
   1   9   1    0.76    0.44   0
   1   9   2   54.37    0.91   0
   3  11  -1   82.54    1.16   0
   4   8   5    1.08    0.87   0
   4  12  -1   23.47    0.95   0
   5  12   3    0.23    0.77   0
   5  13   1    0.37    1.03   0
   6  12   3   10.43    1.20   0
   7  13   2   -0.12    1.06   0
   0   6   1   82.55    0.79   0
   2   5   5  151.34    1.63   0
   2   8   4   59.45    1.27   0
   4  10   4    4.64    0.99   0
   4  12   2    1.48    0.98   0
   5  13   0   43.14    1.37   0
   1   8   0   72.43    0.83   0
   2  10   2   46.22    1.00   0
   3   9   4   -0.12    0.85   0
   3  11   2    6.64    0.85   0
   5  10   4    8.73    1.04   0
   6  10   4    3.23    0.93   0
   6  13   1   20.53    1.40   0
   0   4   3   31.63    0.63   0
   2  10   1    2.20    0.54   0
   3   6   5    0.91    0.73   0
   4  12   0  146.92    1.79   0
   4  12   1   -0.36    0.86   0
   5  12   2    1.52    1.10   0
   6  13   0   28.67    1.41   0
   7  13   1    0.80    1.18   0
   0   3   3   12.75    0.46   0
   0   5   1   26.53    0.45   0
   0   5   2   25.52    0.52   0
   1   5   4   19.69    0.74   0
   1   8   1  594.17    2.27   0
   2   3   5   40.61    0.89   0
   2   7   4    0.74    0.67   0
   3  11   1   15.36    0.83   0
   4   9   4   15.34    1.06   0
   5   7   5   10.58    0.91   0
   6   7   5   -0.13    0.77   0
   6  12   2    2.97    1.12   0
   7  11   3   -0.44    0.96   0
   7  13   0   11.26    1.33   0
   0   2   3   50.83    0.63   0
   3   5   5   53.18    1.10   0
   3   8   4   41.54    1.19   0
   4   6   5    7.20    0.81   0
   5  12  -1   -0.08    0.82   0
   7   6   5    0.16    0.81   0
   7   9   4    2.42    0.84   0
   0   4   2  486.19    1.66   0
   1   4   4   81.78    1.09   0
   2   7  -2    4.33    0.32   0
   2   9   2   44.55    0.93   0
   3  10  -1    3.57    0.53   0
   4  11  -1    1.40    0.76   0
   4  11   2    1.47    0.91   0
   5   6   5    3.48    0.79   0
   5   9   4    5.60    0.93   0
   5  12   0   10.21    0.99   0
   5  12   1    0.58    0.97   0
   6   9   4    0.15    0.86   0
   0   4   1  399.83    1.33   0
   1   7   0   13.03    0.44   0
   2   9   0   67.73    0.89   0
   3  10   2  205.47    2.04   0
   4   5   5   30.03    0.96   0
   8  12   1    0.30    1.06   0
   1   0   4  152.27    1.07   0
   1   1   4  110.02    1.04   0
   2   9   1  284.37    1.78   0
   3   3   5    5.17    0.61   0
   4   8   4    4.34    0.84   0
   5   5   5    0.12    0.82   0
   5  10   3    1.29    0.98   0
   5  11   2    0.91    1.02   0
   6   5   5    5.38    0.82   0
   6  12  -1    0.85    0.94   0
   7   8   4    1.32    0.94   0
   0   3   2   16.88    0.36   0
   1   7   1  190.03    1.22   0
   3   2   5   19.99    0.78   0
   3  10   0    1.95    0.55   0
   3  10   1   88.86    1.27   0
   4   4   5    0.94    0.66   0
   6  12   0   30.81    1.38   0
   7  11   2   -0.34    1.05   0
   2   8   2 1545.74    4.23   0
   5   4   5    8.08    0.88   0
   6   4   5    1.78    0.90   0
   7  12  -1    7.23    1.15   0
   7  12   0   20.47    1.39   0
   8   7   4    0.69    0.81   0
   0   2   2   19.74    0.34   0
   1   6   2  765.86    2.42   0
   3   6   4    1.24    0.66   0
   3   9   2    2.69    0.68   0
   4   3   5    0.38    0.62   0
   4   7   4   56.88    1.27   0
   5  11  -1   25.39    0.99   0
   5  11   1    3.96    0.99   0
   1   6   0   89.85    0.73   0
   2   4   4   70.60    1.04   0
   5   7   4   -0.08    0.76   0
   5  10   2    9.50    1.03   0
   6   7   4   -0.08    0.91   0
   6  11   1    8.87    1.13   0
   7   7   4    2.56    0.82   0
   1   4   3  291.36    1.61   0
   1   6   1    4.15    0.36   0
   2   8   0   51.42    0.73   0
   4  10  -1    8.58    0.65   0
   4  10   1   20.34    0.94   0
   6   9   3   16.41    0.92   0
   8   6   4    3.40    0.81   0
   8  10   2    1.25    0.96   0
   3   9   0   11.59    0.56   0
   4   6   4  257.44    2.17   0
   4  10   0  150.87    1.61   0
   6  10   2    0.60    0.99   0
   7  10   2   23.92    1.27   0
   1   5   2  319.28    1.49   0
   3   7   3   42.56    1.02   0
   5   6   4    8.62    0.82   0
   8   8   3    0.55    0.78   0
   9   9   2   -0.20    0.84   0
   1   3   3  448.11    1.87   0
   2   2   4   33.33    0.69   0
   2   7  -1  409.72    1.56   0
   4   9  -2    0.23    0.46   0
   5  10   1    0.26    0.85   0
   6   6   4   12.73    0.88   0
   6   8   3    0.39    0.81   0
   7   8   3    3.48    0.87   0
   7  11  -1    0.87    1.06   0
   8  11  -1    1.61    1.31   0
   4   5   4    0.02    0.62   0
   5   9   2    0.13    0.87   0
   6  10   1   31.40    1.30   0
   8  10   1   10.10    1.17   0
   1   2   3  115.16    0.94   0
   1   5   0  224.18    0.98   0
   1   5   1 1408.57    2.66   0
   2   1   4    5.31    0.42   0
   2   7   0  591.68    1.99   0
   5  10  -1   65.68    1.22   0
   5  10   0  111.96    1.64   0
   7   5   4   -0.32    0.71   0
   7  10   1   81.23    1.85   0
   8   4   4    1.56    0.79   0
   1   4   2   76.95    0.73   0
   2   6   2  582.15    2.34   0
   3   3   4    0.35    0.48   0
   9   6   3    0.50    0.75   0
   9   8   2    0.72    0.82   0
   1   1   3  337.06    1.44   0
   3   8   0  253.15    1.58   0
   4   9   0   24.56    0.79   0
   5   7   3    3.93    0.59   0
   6  10   0   41.23    1.35   0
   7   7   3    2.76    0.82   0
   2   4   3   12.10    0.46   0
   5   4   4   94.70    1.33   0
   6   4   4   18.89    0.86   0
   6  10  -1   12.00    0.96   0
   7  10   0   33.13    1.42   0
   9  10  -1    0.76    1.29   0
   3   2   4  164.87    1.32   0
   3   7  -2   44.75    0.60   0
   4   3   4    2.96    0.55   0
   4   6   3    5.20    0.53   0
   5   9  -2    1.46    0.65   0
   6   9   1    8.04    1.00   0
   7   8   2    4.13    0.90   0
   7  10  -2    8.32    0.98   0
   8   2   4   -0.22    0.87   0
   8   6   3   -0.31    0.72   0
   8  10  -2   23.65    1.43   0
   8  10  -1    4.08    1.11   0
  10   8   1    1.06    0.82   0
   1   3   2  270.17    1.20   0
   2   5   2   52.37    0.77   0
   2   6   1   20.10    0.51   0
   5   6   3    1.54    0.68   0
   5   9   0   70.15    1.31   0
   7   3   4   -0.05    0.69   0
   7   6   3    2.64    0.77   0
   7   9   1    2.05    0.96   0
   9   7   2    0.54    0.79   0
  10   6   2    0.02    0.71   0
   2   3   3  337.79    1.72   0
   5   3   4   10.00    0.67   0
   6   3   4    5.27    0.69   0
   6   6   3    0.58    0.72   0
   2   6   0   15.70    0.40   0
   3   0   4   16.14    0.56   0
   4   2   4    1.04    0.48   0
   4   5   3    0.82    0.56   0
   6   9   0    2.60    0.86   0
   8   5   3   10.02    0.86   0
   8   7   2   21.32    1.07   0
   9   4   3   -0.36    0.75   0
   9   8   1    0.44    0.86   0
   4   8   0  168.43    1.50   0
   5   8   1   58.00    1.28   0
   6   9  -2    0.92    0.80   0
   7   7   2   12.95    0.93   0
   7   9   0   49.55    1.48   0
   8   9   0    0.32    1.00   0
   2   2   3  395.48    1.72   0
   3   7   0   35.81    0.65   0
   4   1   4    2.20    0.46   0
   6   5   3    7.87    0.76   0
   6   7   2   11.86    0.91   0
   7   1   4    0.57    0.68   0
   7   5   3    2.07    0.71   0
   7   8   1    1.74    0.90   0
   8   8   1    0.41    0.87   0
   9   6   2    1.22    0.77   0
  10   5   2    0.42    0.73   0
  11   7   0    3.49    1.02   0
  11   8  -1   -0.46    0.85   0
   1   2   2  111.30    0.73   0
   2   4   2  119.44    1.00   0
   6   1   4    1.18    0.62   0
   8   4   3    0.46    0.72   0
   2   5   1  101.55    0.85   0
   3   5   2   48.41    0.85   0
   4   7   1   16.25    0.60   0
   5   8   0   22.06    0.88   0
   8   6   2   58.32    1.37   0
   8   9  -2    4.57    1.04   0
   9   8   0    0.68    0.96   0
   3   6   1    3.91    0.48   0
   5   0   4   64.88    1.01   0
   6   0   4   45.62    0.97   0
   7   4   3    0.78    0.66   0
   9   5   2    2.18    0.77   0
  10   4   2    6.18    0.81   0
  10   6   1    0.68    0.77   0
  10   8  -1   -0.03    0.95   0
   2   1   3  447.90    1.69   0
   5   4   3    2.77    0.57   0
   6   4   3   10.38    0.72   0
   6   6   2   61.03    1.26   0
   8   7   1    9.06    0.98   0
   8   8   0   43.73    1.42   0
  10   7   0    2.78    0.90   0
   2   5   0  222.33    1.04   0
   3   6  -2  333.49    1.31   0
   4   7   0   83.80    1.08   0
   7   7   1   70.47    1.49   0
   9   1   3    0.07    0.72   0
   9   8  -1    5.06    1.03   0
  10   8  -3    0.47    1.10   0
  11   6   0    1.46    0.77   0
   1   1   2   56.28    0.49   0
   2   3   2   85.39    0.81   0
   3   2   3  178.11    1.25   0
   3   6   0  129.59    1.04   0
   6   8  -1    3.05    0.75   0
   8   5   2    1.06    0.70   0
   9   6   1    2.37    0.82   0
  11   4   1    0.27    0.69   0
   3   4   2  595.01    2.35   0
   4   7  -1   17.53    0.56   0
   6   8  -2   19.78    0.83   0
   7   8  -1   16.11    1.04   0
   8   8  -3   75.16    1.62   0
   8   8  -1    7.05    1.05   0
   9   4   2    1.00    0.70   0
   9   7   0   35.95    1.29   0
   9   8  -3   17.31    1.20   0
   9   8  -2   -0.34    1.02   0
  10   5   1    0.59    0.74   0
   3   6  -1   58.61    0.66   0
  10   7  -1   16.56    1.13   0
  11   7  -3   -0.22    1.00   0
   3   5   1    4.74    0.38   0
   5   6   1   -0.54    0.60   0
   8   4   2   -0.65    0.64   0
   8   7   0   18.45    1.09   0
  11   6  -1    0.36    0.82   0
   2  -1   3  428.63    1.41   0
   3   1   3   75.73    0.80   0
   6   7   0   77.39    1.38   0
   7   7   0    1.43    0.82   0
   9   3   2    0.71    0.69   0
   9   5   1   17.37    0.95   0
   4   4   2   63.23    0.88   0
   4   6   0   14.94    0.59   0
   5   7  -1   13.18    0.67   0
   7   4   2   80.23    1.31   0
   9   6   0    1.00    0.81   0
   2   2   2   12.30    0.32   0
;
_shelx_hkl_checksum               13539
_olex2_submission_special_instructions 'No special instructions were received'
